2013-05-22 12:22:30,549  INFO Gbl:53 JVM: 1.6.0_19; Sun Microsystems Inc.; mixed mode, sharing; 32-bit
2013-05-22 12:22:30,549  INFO Gbl:57 OS: Windows NT (unknown); 6.2; x86
2013-05-22 12:22:30,549  INFO Gbl:60 CPU cores: 4
2013-05-22 12:22:30,549  INFO Gbl:61 max. Memory: 247.5MB (259522560B)
2013-05-22 12:22:30,549  INFO Gbl:89 MATSim-Build: r23466 (2013-04-02 14:36:54)
2013-05-22 12:22:30,549  INFO AbstractController:71 Used Controler-Class: org.matsim.core.controler.Controler
2013-05-22 12:22:30,564  INFO AbstractController:203 Complete config dump directly after reading/getting the config file.  See later for config dump after setup.
2013-05-22 12:22:30,580  INFO AbstractController:207 

<?xml version="1.0" encoding="UTF-8"?>
<!DOCTYPE config SYSTEM "http://www.matsim.org/files/dtd/config_v1.dtd">
<config>

<!-- ====================================================================== -->

	<module name="TimeAllocationMutator" >

		<!-- Defines how many seconds a time mutation can maximally shift a time. -->
		<param name="mutationRange" value="1800.0" />
	</module>

<!-- ====================================================================== -->

	<module name="controler" >
		<param name="enableLinkToLinkRouting" value="false" />

		<!-- Specifies the file format for writing events. Currently supported: txt, xml. Multiple values can be specified separated by commas (','). -->
		<param name="eventsFileFormat" value="xml" />

		<param name="firstIteration" value="0" />
		<param name="lastIteration" value="9" />

		<!-- Defines which mobility simulation will be used. Currently supported: queueSimulation qsim JDEQSim multimodalQSim 
Depending on the chosen mobsim, you'll have to add additional config modules to configure the corresponding mobsim.
For 'qsim', add a module 'qsim' to the config.
For 'queueSimulation', add a module 'simulation' to the config. -->
		<param name="mobsim" value="qsim" />

		<param name="outputDirectory" value="./output" />

		<!-- The type of routing (least cost path) algorithm used, may have the values: Dijkstra, FastDijkstra, AStarLandmarks or FastAStarLandmarks -->
		<param name="routingAlgorithmType" value="Dijkstra" />

		<!-- An identifier for the current run which is used as prefix for output files and mentioned in output xml files etc. -->
		<param name="runId" value="run0" />

		<!-- Comma-separated list of visualizer output file formats. `transims', `googleearth', and `otfvis'. -->
		<param name="snapshotFormat" value="" />

		<!-- iterationNumber % writeEventsInterval == 0 defines in which iterations events are written to a file. `0' disables events writing completely. -->
		<param name="writeEventsInterval" value="10" />

		<!-- iterationNumber % writePlansInterval == 0 defines (hopefully) in which iterations plans are written to a file. `0' disables plans writing completely.  Some plans in early iterations are always written -->
		<param name="writePlansInterval" value="1" />

		<!-- iterationNumber % writeSnapshotsInterval == 0 defines in which iterations snapshots are written to a file. `0' disables snapshots writing completely -->
		<param name="writeSnapshotsInterval" value="10" />
	</module>

<!-- ====================================================================== -->

	<module name="counts" >

		<!-- Specifies over how many iterations the link volumes should be averaged that are used for the counts comparison. Use 1 or 0 to only use the link volumes of a single iteration. This values cannot be larger than the value specified for writeCountsInterval -->
		<param name="averageCountsOverIterations" value="5" />

		<!-- factor by which to re-scale the simulated values.  necessary when simulation runs with something different from 100%.  needs to be adapted manually -->
		<param name="countsScaleFactor" value="1.0" />

		<!-- distance to distanceFilterCenterNode to include counting stations. The unit of distance is the Euclidean distance implied by the coordinate system -->
		<param name="distanceFilter" value="12000.0" />

		<!-- node id for center node of distance filter -->
		<param name="distanceFilterCenterNode" value="2531" />

		<!-- input file name to counts package -->
		<param name="inputCountsFile" value="null" />

		<!-- possible values: `html', `kml', `txt', `all' -->
		<param name="outputformat" value="all" />

		<!-- Specifies how often the counts comparison should be calculated and written. -->
		<param name="writeCountsInterval" value="10" />
	</module>

<!-- ====================================================================== -->

	<module name="facilities" >
		<param name="inputFacilitiesFile" value="./input/facilities.xml.gz" />
	</module>

<!-- ====================================================================== -->

	<module name="global" >
		<param name="coordinateSystem" value="CH1903_LV03" />
		<param name="numberOfThreads" value="4" />
		<param name="randomSeed" value="5399998864266990000" />
	</module>

<!-- ====================================================================== -->

	<module name="households" >
		<param name="inputFile" value="null" />
	</module>

<!-- ====================================================================== -->

	<module name="linkStats" >

		<!-- Specifies over how many iterations the link volumes should be averaged that are used for the link statistics. Use 1 or 0 to only use the link volumes of a single iteration. This values cannot be larger than the value specified for writeLinkStatsInterval -->
		<param name="averageLinkStatsOverIterations" value="5" />

		<!-- Specifies how often the link stats should be calculated and written. Use 0 to disable the generation of link stats. -->
		<param name="writeLinkStatsInterval" value="10" />
	</module>

<!-- ====================================================================== -->

	<module name="locationchoice" >
		<param name="algorithm" value="random" />
		<param name="analysisBinSize" value="20000.0" />
		<param name="analysisBoundary" value="200000.0" />
		<param name="centerNode" value="null" />
		<param name="destinationSamplePercent" value="100.0" />
		<param name="epsilonDistribution" value="gumbel" />
		<param name="epsilonScaleFactors" value="null" />
		<param name="fAttributesFileName" value="null" />
		<param name="fkValuesFile" value="null" />
		<param name="flexible_types" value="null" />
		<param name="idExclusion" value="2147483647" />
		<param name="maxDCScoreFile" value="null" />
		<param name="maxDistanceDCScore" value="-1.0" />
		<param name="maxRecursions" value="1" />
		<param name="pBetasFileName" value="null" />
		<param name="pkValuesFile" value="null" />
		<param name="planSelector" value="SelectExpBeta" />
		<param name="probChoiceSetSize" value="10" />
		<param name="radius" value="null" />
		<param name="randomSeed" value="221177" />
		<param name="recursionTravelSpeed" value="8.5" />
		<param name="recursionTravelSpeedChange" value="0.1" />
		<param name="restraintFcnExp" value="0.0" />
		<param name="restraintFcnFactor" value="0.0" />
		<param name="scaleFactor" value="1" />
		<param name="tt_approximationLevel" value="0" />
	</module>

<!-- ====================================================================== -->

	<module name="multimodal" >

		<!-- Use this, if your network is not multi modal. Links with free speeds that are lower than the specified cutoff value will be usable for walk and bike trips. -->
		<param name="createMultiModalNetwork" value="false" />

		<!-- Only used, if createMultiModalNetwork is enabled (set value in m/s). -->
		<param name="cuttoffValueForNonCarModes" value="22.22222222222222" />

		<param name="dropNonCarRoutes" value="false" />
		<param name="multiModalSimulationEnabled" value="false" />

		<!-- Use number of threads > 1 for parallel version using the specified number of threads. -->
		<param name="numberOfThreads" value="1" />

		<param name="simulatedModes" value="pt,walk,ride,bike" />
	</module>

<!-- ====================================================================== -->

	<module name="network" >
		<param name="inputChangeEventsFile" value="./input/roadClosure.xml" />
		<param name="inputNetworkFile" value="./input/network.xml" />
		<param name="laneDefinitionsFile" value="null" />
		<param name="timeVariantNetwork" value="true" />
	</module>

<!-- ====================================================================== -->

	<module name="otfvis" >

		<!-- The (initial) size of the agents.  Only a range of numbers is allowed, otherwise otfvis aborts rather ungracefully, or displays no agents at all. -->
		<param name="agentSize" value="120.0" />

		<!-- coloring scheme for otfvis.  Currently (2012) allowed values: standard bvg bvg2 byId gtfs -->
		<param name="coloringScheme" value="standard" />

		<!-- If non-moving items (e.g. agents at activities, at bus stops, etc.) should be showed.  May affect all non-moving items. -->
		<param name="drawNonMovingItems" value="false" />

		<param name="drawTransitFacilities" value="true" />
		<param name="drawTransitFacilityIds" value="true" />
		<param name="leftMouseFunc" value="Zoom" />

		<!-- The (initial) width of the links of the network. Use positive floating point values. -->
		<param name="linkWidth" value="30.0" />

		<!-- Link width is proportional to `numberOfLanes' or to `capacity'. -->
		<param name="linkwidthIsProportionalTo" value="numberOfLanes" />

		<!-- URL to get WMS tiles from. For a local GeoServer instance, use http://localhost:8080/geoserver/wms?service=WMS& -->
		<param name="mapBaseURL" value="" />

		<!-- The WMS layer to display. For GeoServer and a layer called clipped in workspace mz, use mz:clipped -->
		<param name="mapLayer" value="" />

		<!-- Render everything on top of map tiles. Default: From tiles.openstreetmap.org -->
		<param name="mapOverlayMode" value="false" />

		<param name="middleMouseFunc" value="Pan" />

		<!-- Shortens a link's start and end point in the visualization. -->
		<param name="nodeOffset" value="0.0" />

		<param name="rightMouseFunc" value="Select" />
		<param name="showTeleportation" value="false" />
	</module>

<!-- ====================================================================== -->

	<module name="parallelEventHandling" >

		<!-- estimated number of events during mobsim run, useful for configuration -->
		<param name="estimatedNumberOfEvents" value="null" />

		<!-- number of threads for parallel events handler.  0 or null means parallel events handler is disabled -->
		<param name="numberOfThreads" value="null" />
	</module>

<!-- ====================================================================== -->

	<module name="planCalcScore" >

		<!-- new_score = (1-learningRate)*old_score + learningRate * score_from_mobsim.  learning rates close to zero emulate score averaging, but slow down initial convergence -->
		<param name="learningRate" value="1.0" />

		<!-- logit model scale parameter. default: 2.  Has name and default value for historical reasons (see Bryan Raney's phd thesis).  Should be in strategyConfigGroup. -->
		<param name="BrainExpBeta" value="10.0" />

		<param name="PathSizeLogitBeta" value="1.0" />

		<!-- [utils/hr] utility for arriving late (i.e. after the latest start time).  normally negative -->
		<param name="lateArrival" value="-18.0" />

		<!-- [utils/hr] utility for departing early (i.e. before the earliest end time).  Probably implemented correctly, but not tested. -->
		<param name="earlyDeparture" value="-0.0" />

		<!-- [utils/hr] marginal utility of doing an activity.  normally positive.  also the opportunity cost of time if agent is doing nothing. -->
		<param name="performing" value="6.0" />

		<!-- [utils/hr] additional marginal utility of traveling by car.  normally negative.  this comes on top of the opportunity cost of time -->
		<param name="traveling" value="-6.0" />

		<!-- [utils/hr] additional marginal utility offset of traveling by pt.  normally negative.  this comes on top of the opportunity cost of time -->
		<param name="travelingPt" value="-6.0" />

		<!-- [utils/hr] additional marginal utility offset of traveling by foot.  normally negative.  this comes on top of the opportunity cost of time.  also see marginalUtlOfDistanceWalk -->
		<param name="travelingWalk" value="-6.0" />

		<param name="travelingOther" value="-6.0" />
		<param name="travelingBike" value="-6.0" />

		<!-- [utils/hr] utility offset for waiting.  this comes on top of the opportunity cost of time.  Probably implemented correctly, but not tested. -->
		<param name="waiting" value="-0.0" />

		<!-- [utils/hr] utility offset for waiting for a pt vehicle.  this comes on top of the opportunity cost of time. Default: if not set explicitly, it is equal to traveling_pt!!! -->
		<param name="waitingPt" value="-6.0" />

		<!-- [utils/m] utility of walking per m, normally negative.  this is on top of the time (dis)utility. -->
		<param name="marginalUtlOfDistanceWalk" value="0.0" />

		<param name="marginalUtlOfDistanceOther" value="0.0" />

		<!-- [utils/unit_of_money] conversion of money (e.g. toll, distance cost) into utils -->
		<param name="marginalUtilityOfMoney" value="1.0" />

		<!-- [unit_of_money/m] conversion of car distance into money. Probably needs to be negative to work. -->
		<param name="monetaryDistanceCostRateCar" value="0.0" />

		<!-- [unit_of_money/m] conversion of pt distance into money. Probably needs to be negative to work. -->
		<param name="monetaryDistanceCostRatePt" value="0.0" />

		<!-- [utils] utility of switching a line (= transfer penalty).  Normally negative -->
		<param name="utilityOfLineSwitch" value="-1.0" />

		<!-- [utils] alternative-specific constant for car.  no guarantee that this is used anywhere. default=0 to be backwards compatible for the time being -->
		<param name="constantCar" value="0.0" />

		<!-- [utils] alternative-specific constant for walk.  no guarantee that this is used anywhere. default=0 to be backwards compatible for the time being -->
		<param name="constantWalk" value="0.0" />

		<param name="constantOther" value="0.0" />

		<!-- [utils] alternative-specific constant for bike.  no guarantee that this is used anywhere. default=0 to be backwards compatible for the time being -->
		<param name="constantBike" value="0.0" />

		<!-- [utils] alternative-specific constant for pt.  no guarantee that this is used anywhere. default=0 to be backwards compatible for the time being -->
		<param name="constantPt" value="0.0" />

		<!-- write a plans file in each iteration directory which contains what each agent actually did, and the score it received. -->
		<param name="writeExperiencedPlans" value="false" />

		<!--  ============================  -->
		<param name="activityType_0" value="origin" />

		<param name="activityPriority_0" value="1.0" />
		<param name="activityTypicalDuration_0" value="12:00:00" />
		<param name="activityMinimalDuration_0" value="08:00:00" />
		<param name="activityOpeningTime_0" value="undefined" />
		<param name="activityLatestStartTime_0" value="undefined" />
		<param name="activityEarliestEndTime_0" value="undefined" />
		<param name="activityClosingTime_0" value="undefined" />

		<!--  ============================  -->
		<param name="activityType_1" value="destination" />

		<param name="activityPriority_1" value="1.0" />
		<param name="activityTypicalDuration_1" value="12:00:00" />
		<param name="activityMinimalDuration_1" value="08:00:00" />
		<param name="activityOpeningTime_1" value="undefined" />
		<param name="activityLatestStartTime_1" value="undefined" />
		<param name="activityEarliestEndTime_1" value="undefined" />
		<param name="activityClosingTime_1" value="undefined" />
	</module>

<!-- ====================================================================== -->

	<module name="plans" >

		<!-- Path to a file containing person attributes (required file format: ObjectAttributes). -->
		<param name="inputPersonAttributesFile" value="null" />

		<param name="inputPlansFile" value="./input/population.xml" />

		<!-- Defines how routes are stored in memory. Currently supported: LinkNetworkRoute, CompressedNetworkRoute. -->
		<param name="networkRouteType" value="LinkNetworkRoute" />
	</module>

<!-- ====================================================================== -->

	<module name="planscalcroute" >

		<!-- factor with which beeline distances (and therefore times) are multiplied in order to obtain an estimate of the network distances/times.  Default is something like 1.3 -->
		<param name="beelineDistanceFactor" value="1.3" />

		<!-- All the modes for which the router is supposed to generate network routes (like car) -->
		<param name="networkModes" value="car,ride" />

		<!-- Free-speed factor for a teleported mode based on freespeed: freespeedFactor * <freespeed car travel time>. Insert a line like this for every such mode. freespeedFactor wins over teleportedModeSpeed, if both are set (says michaz). -->
		<param name="teleportedModeFreespeedFactor_pt" value="2.0" />

		<!-- Speed for a teleported mode based on beeline-distance: (<beeline distance> * beelineDistanceFactor) / speed. Insert a line like this for every such mode. -->
		<param name="teleportedModeSpeed_bike" value="4.166666666666667" />

		<!-- Speed for a teleported mode based on beeline-distance: (<beeline distance> * beelineDistanceFactor) / speed. Insert a line like this for every such mode. -->
		<param name="teleportedModeSpeed_undefined" value="13.88888888888889" />

		<!-- Speed for a teleported mode based on beeline-distance: (<beeline distance> * beelineDistanceFactor) / speed. Insert a line like this for every such mode. -->
		<param name="teleportedModeSpeed_walk" value="0.8333333333333333" />
	</module>

<!-- ====================================================================== -->

	<module name="ptCounts" >

		<!-- factor by which to re-scale the simulated values.  necessary when simulation runs with something different from 100%.  needs to be adapted manually -->
		<param name="countsScaleFactor" value="1.0" />

		<!-- distance to distanceFilterCenterNode to include counting stations. The unit of distance is the Euclidean distance implied by the coordinate system -->
		<param name="distanceFilter" value="null" />

		<!-- node id for center node of distance filter -->
		<param name="distanceFilterCenterNode" value="null" />

		<!-- input file containing the alighting (getting off) counts for pt -->
		<param name="inputAlightCountsFile" value="null" />

		<!-- input file containing the boarding (getting on) counts for pt -->
		<param name="inputBoardCountsFile" value="null" />

		<!-- input file containing the occupancy counts for pt -->
		<param name="inputOccupancyCountsFile" value="null" />

		<!-- possible values: `html', `kml', `txt', `all' -->
		<param name="outputformat" value="null" />

		<!-- every how many iterations (starting with 0) counts comparisons are generated -->
		<param name="ptCountsInterval" value="10" />
	</module>

<!-- ====================================================================== -->

	<module name="qsim" >
		<param name="endTime" value="00:00:00" />
		<param name="flowCapacityFactor" value="1.0" />

		<!-- decides if waiting vehicles enter the network after or before the already driving vehicles were moved. Default: false -->
		<param name="insertingWaitingVehiclesBeforeDrivingVehicles" value="false" />

		<!-- Defines which mode should be the qsim `main' (=congested) mode. Technically, this is the mode that the departure handler of the netsimengine handles.  Effective cell size, effective lane width, flow capacity factor, and storage capacity factor need to be set with diligence.  Needs to be a vehicular mode to make sense. -->
		<param name="mainMode" value="car" />

		<!-- Use number of threads > 1 for parallel version using the specified number of threads -->
		<param name="numberOfThreads" value="1" />

		<!-- Boolean. `true': stuck vehicles are removed, aborting the plan; `false': stuck vehicles are forced into the next link. `false' is probably the better choice. -->
		<param name="removeStuckVehicles" value="true" />

		<!-- `maxOfStarttimeAndEarliestActivityEnd' (default behavior) or `onlyUseStarttime' -->
		<param name="simStarttimeInterpretation" value="maxOfStarttimeAndEarliestActivityEnd" />

		<!-- snapshotStyle: `equiDist' (vehicles equidistant on link) or `queue' (vehicles queued at end of link) or `withHolesExperimental' (experimental!!) -->
		<param name="snapshotStyle" value="equiDist" />

		<param name="snapshotperiod" value="00:00:10" />
		<param name="startTime" value="00:00:00" />
		<param name="storageCapacityFactor" value="1.0" />

		<!-- time in seconds.  Time after which the frontmost vehicle on a link is called `stuck' if it does not move. -->
		<param name="stuckTime" value="100.0" />

		<param name="timeStepSize" value="00:00:01" />

		<!-- `queue' for the standard queue model, `withHolesExperimental' (experimental!!) for the queue model with holes -->
		<param name="trafficDynamics" value="queue" />

		<!-- Defines what happens if an agent wants to depart, but the specified vehicle is not available. One of: teleport, wait, exception -->
		<param name="vehicleBehavior" value="teleport" />
	</module>

<!-- ====================================================================== -->

	<module name="roadpricing" >
	</module>

<!-- ====================================================================== -->

	<module name="scenario" >

		<!-- Set this parameter to true if households should be used, false if not. -->
		<param name="useHouseholds" value="false" />

		<!-- Set this parameter to true if knowledge should be used, false if not. -->
		<param name="useKnowledge" value="false" />

		<!-- Set this parameter to true if lanes should be used, false if not. -->
		<param name="useLanes" value="false" />

		<!-- Set this parameter to true if roadpricing should be used, false if not. -->
		<param name="useRoadpricing" value="false" />

		<!-- Set this parameter to true if signal systems should be used, false if not. -->
		<param name="useSignalsystems" value="false" />

		<!-- Set this parameter to true if transit should be simulated, false if not. -->
		<param name="useTransit" value="false" />

		<!-- Set this parameter to true if vehicles should be used, false if not. -->
		<param name="useVehicles" value="false" />
	</module>

<!-- ====================================================================== -->

	<module name="signalsystems" >
		<param name="ambertimes" value="null" />
		<param name="intergreentimes" value="null" />
		<param name="signalcontrol" value="null" />
		<param name="signalgroups" value="null" />
		<param name="signalsystems" value="null" />
		<param name="useAmbertimes" value="false" />
		<param name="useIntergreentimes" value="false" />
	</module>

<!-- ====================================================================== -->

	<module name="strategy" >
		<param name="ExternalExeConfigTemplate" value="null" />
		<param name="ExternalExeTimeOut" value="3600" />
		<param name="ExternalExeTmpFileRootDir" value="null" />

		<!-- iteration after which module will be disabled.  most useful for ``innovative'' strategies (new routes, new times, ...) -->
		<param name="ModuleDisableAfterIteration_1" value="null" />

		<!-- iteration after which module will be disabled.  most useful for ``innovative'' strategies (new routes, new times, ...) -->
		<param name="ModuleDisableAfterIteration_2" value="null" />

		<!-- iteration after which module will be disabled.  most useful for ``innovative'' strategies (new routes, new times, ...) -->
		<param name="ModuleDisableAfterIteration_3" value="null" />

		<!-- path to external executable (if applicable) -->
		<param name="ModuleExePath_1" value="null" />

		<!-- path to external executable (if applicable) -->
		<param name="ModuleExePath_2" value="null" />

		<!-- path to external executable (if applicable) -->
		<param name="ModuleExePath_3" value="null" />

		<!-- probability that a strategy is applied to a given a person.  despite its name, this really is a ``weight'' -->
		<param name="ModuleProbability_1" value="0.9" />

		<!-- probability that a strategy is applied to a given a person.  despite its name, this really is a ``weight'' -->
		<param name="ModuleProbability_2" value="0.1" />

		<!-- probability that a strategy is applied to a given a person.  despite its name, this really is a ``weight'' -->
		<param name="ModuleProbability_3" value="0.1" />

		<!-- name of strategy (if not full class name, resolved in StrategyManagerConfigLoader) -->
		<param name="Module_1" value="BestScore" />

		<!-- name of strategy (if not full class name, resolved in StrategyManagerConfigLoader) -->
		<param name="Module_2" value="ReRoute" />

		<!-- name of strategy (if not full class name, resolved in StrategyManagerConfigLoader) -->
		<param name="Module_3" value="TimeAllocationMutator" />

		<!-- maximum number of plans per agent.  ``0'' means ``infinity''.  Currently (2010), ``5'' is a good number -->
		<param name="maxAgentPlanMemorySize" value="5" />

		<!-- name of PlanSelector for plans removal.  If not full class name, resolved in StrategyManagerConfigLoader.  default is `null', which eventually calls SelectWorstPlan. This is not a good choice from a discrete choice theoretical perspective. Alternatives, however, have not been systematically tested. kai, feb'12 -->
		<param name="planSelectorForRemoval" value="null" />
	</module>

<!-- ====================================================================== -->

	<module name="subtourModeChoice" >

		<!-- Defines the chain-based modes, seperated by commas -->
		<param name="chainBasedModes" value="car,bike" />

		<!-- Defines whether car availability must be considered or not. A agent has no car only if it has no license, or never access to a car -->
		<param name="considerCarAvailability" value="false" />

		<!-- Defines all the modes available, including chain-based modes, seperated by commas -->
		<param name="modes" value="car,pt,bike,walk" />
	</module>

<!-- ====================================================================== -->

	<module name="transit" >

		<!-- Comma-separated list of transportation modes that are handled as transit. Defaults to 'pt'. -->
		<param name="transitModes" value="pt" />

		<!-- Input file containing the transit schedule to be simulated. -->
		<param name="transitScheduleFile" value="null" />

		<!-- Input file containing the vehicles used by the departures in the transit schedule. -->
		<param name="vehiclesFile" value="null" />
	</module>

<!-- ====================================================================== -->

	<module name="transitRouter" >

		<!-- additional time the router allocates when a line switch happens. Can be interpreted as a 'safety' time that agents need to safely transfer from one line to another -->
		<param name="additionalTransferTime" value="0.0" />

		<!-- step size to increase searchRadius if no stops are found -->
		<param name="extensionRadius" value="200.0" />

		<!-- maximum beeline distance between stops that agents could transfer to by walking -->
		<param name="maxBeelineWalkConnectionDistance" value="100.0" />

		<!-- the radius in which stop locations are searched, given a start or target coordinate -->
		<param name="searchRadius" value="1000.0" />
	</module>

<!-- ====================================================================== -->

	<module name="travelTimeCalculator" >

		<!-- Transport modes that will be respected by the travel time collector. 'car' is default, which includes also bussed from the pt simulation module. Use this parameter in combination with 'filterModes' = true! -->
		<param name="analyzedModes" value="car" />

		<param name="calculateLinkToLinkTravelTimes" value="false" />
		<param name="calculateLinkTravelTimes" value="true" />

		<!-- If true, link travel times from legs performed on modes not included in the 'analyzedModes' parameter are ignored. -->
		<param name="filterModes" value="false" />

		<!-- How to deal with congested time bins that have no link entry events. `optimistic' assumes free speed (too optimistic); 'experimental_LastMile' is experimental and probably too pessimistic. -->
		<param name="travelTimeAggregator" value="optimistic" />

		<!-- The size of the time bin (in sec) into which the link travel times are aggregated for the router -->
		<param name="travelTimeBinSize" value="900" />

		<param name="travelTimeCalculator" value="TravelTimeCalculatorArray" />

		<!-- How to deal with link entry times at different positions during the time bin. Currently supported: average, linearinterpolation -->
		<param name="travelTimeGetter" value="average" />
	</module>

<!-- ====================================================================== -->

	<module name="vspExperimental" >

		<!-- String: minOfDurationAndEndTime tryEndTimeThenDuration endTimeOnly. Anything besides minOfDurationAndEndTime will internally use a different (simpler) version of the TimeAllocationMutator. -->
		<param name="activityDurationInterpretation" value="minOfDurationAndEndTime" />

		<!-- REQUIRED: file with HBEFA 3.1 fleet average cold emission factors -->
		<param name="averageFleetColdEmissionFactorsFile" value="null" />

		<!-- REQUIRED: file with HBEFA 3.1 fleet average warm emission factors -->
		<param name="averageFleetWarmEmissionFactorsFile" value="null" />

		<!-- (do not use) set chainBasedModes for subTourModeChoice by Yu. E.g. "car,bike", "car" -->
		<param name="chainBasedModes" value="car" />

		<!-- OPTIONAL: file with HBEFA 3.1 detailed cold emission factors -->
		<param name="detailedColdEmissionFactorsFile" value="null" />

		<!-- OPTIONAL: file with HBEFA 3.1 detailed warm emission factors -->
		<param name="detailedWarmEmissionFactorsFile" value="null" />

		<!-- REQUIRED: mapping from input road types to HBEFA 3.1 road type strings -->
		<param name="emissionRoadTypeMappingFile" value="null" />

		<!-- definition of a vehicle for every person (who is allowed to choose a vehicle in the simulation):
 - REQUIRED: vehicle type Id must start with the respective HbefaVehicleCategory followed by `;'
 - OPTIONAL: if detailed emission calculation is switched on, vehicle type Id should aditionally contain HbefaVehicleAttributes (`Technology;SizeClasse;EmConcept'), corresponding to the strings in detailedWarmEmissionFactorsFile -->
		<param name="emissionVehicleFile" value="null" />

		<!-- (do not use) Set this filename of MZ05 daily analysis -->
		<param name="inputMZ05File" value="" />

		<!-- (do not use except of you have to) There was a problem with pt interaction scoring.  Some people solved it by overwriting the parameters of the pt interaction activity type.  Doing this now throws an Exception.  If you still insist on doing this, set the following to true. -->
		<param name="isAbleToOverwritePtInteractionParams" value="false" />

		<param name="isGeneratingBoardingDeniedEvent" value="false" />

		<!-- if an approximation of the opportunity cost of time is included into the radius calculation for location choice.`true' will be faster, but it is an approximation.  Default is `true'; `false' is available for backwards compatibility. -->
		<param name="isUsingOpportunityCostOfTimeForLocationChoice" value="true" />

		<param name="logitScaleParamForPlansRemoval" value="1." />

		<!-- changes MATSim's global time format used in output files. Can be used to enforce writing fractional seconds e.g. in output_plans.  default is `hh:mm:ss' (because of backwards compatibility). see Time.java for possible formats -->
		<param name="matsimGlobalTimeformat" value="HH:mm:ss" />

		<!-- (do not use) set the traffic mode option for subTourModeChoice by Yu -->
		<param name="modes" value="car, pt" />

		<!-- (not tested) will remove plan attributes that are presumably not used, such as activityStartTime. default=false -->
		<param name="removingUnnecessaryPlanAttributes" value="false" />

		<!-- first iteration of MSA score averaging. The matsim theory department suggests to use this together with switching of choice set innovation, but it has not been tested yet. -->
		<param name="scoreMSAStartsAtIteration" value="null" />

		<!-- if true then detailed emission factor files must be provided! -->
		<param name="usingDetailedEmissionCalculation" value="false" />

		<!-- indicates if, for routing, the opportunity cost of time should be added to the mode-specific marginal utilities of time.
		Default is true; false is possible only for backwards compatibility.
		This is only a suggestion since there is (by matsim design) no way to enforce that mental modules obey this. -->
		<param name="usingOpportunityCostOfTimeForPtRouting" value="true" />

		<!-- Options: `ignore', `warn', `abort'.  Default: either `ignore' or `warn'.
		When violating VSP defaults, this results in nothing, warnings, or aborts.  Members of VSP should use `abort' or talk to kai. -->
		<param name="vspDefaultsCheckingLevel" value="ignore" />

		<!-- if true then writes output_events in output directory.  default is `false'. Will only work when lastIteration is multiple of events writing interval -->
		<param name="writingOutputEvents" value="false" />
	</module>

<!-- ====================================================================== -->

</config>

2013-05-22 12:22:30,595  INFO AbstractController:208 Complete config dump done.
2013-05-22 12:22:30,595  INFO AbstractController:209 Checking consistency of config...
2013-05-22 12:22:30,595  INFO PlanCalcScoreConfigGroup:399 NO OPENING OR CLOSING TIMES DEFINED!


There is no activity type that has an opening *and* closing time (or opening time and late penalty) defined.
This usually means that the activity chains can be shifted by an arbitrary
number of hours without having an effect on the score of the plans, and thus
resulting in wrong results / traffic patterns.
If you are using MATSim without time adaptation, you can ignore this warning.



2013-05-22 12:22:30,595  INFO AbstractController:211 Checking consistency of config done.
2013-05-22 12:22:30,642  INFO SnapshotWriterRegistrar:41 OTFVis snapshots will not be supported, as OTFVis is not part of the classpath.
2013-05-22 12:22:30,689  INFO ScenarioLoaderImpl:135 loading scenario from base directory: C:\Users\tongbens01\Desktop\MATSimTutorial\workspace\matsim_cdo\
2013-05-22 12:22:30,689  INFO ScenarioLoaderImpl:169 loading network from ./input/network.xml
2013-05-22 12:22:30,689  INFO ScenarioLoaderImpl:172 use TimeVariantLinks in NetworkFactory.
2013-05-22 12:22:30,706  INFO MatsimNetworkReader:83 using network_v1-reader.
2013-05-22 12:22:30,706  INFO MatsimXmlParser:215 Trying to load http://www.matsim.org/files/dtd/network_v1.dtd. In some cases (e.g. network interface up but no connection), this may take a bit.
2013-05-22 12:22:32,472  INFO ScenarioLoaderImpl:180 loading network change events from ./input/roadClosure.xml
2013-05-22 12:22:32,487  INFO MatsimXmlParser:215 Trying to load http://www.matsim.org/files/dtd/networkChangeEvents.xsd. In some cases (e.g. network interface up but no connection), this may take a bit.
2013-05-22 12:22:32,926  INFO MatsimXmlParser:215 Trying to load http://www.matsim.org/files/dtd/matsimCommon.xsd. In some cases (e.g. network interface up but no connection), this may take a bit.
2013-05-22 12:22:33,364  INFO ScenarioLoaderImpl:197 loading facilities from ./input/facilities.xml.gz
2013-05-22 12:22:33,364  INFO MatsimFacilitiesReader:98 using facilities_v1-reader.
2013-05-22 12:22:33,380  INFO MatsimXmlParser:215 Trying to load http://www.matsim.org/files/dtd/facilities_v1.dtd. In some cases (e.g. network interface up but no connection), this may take a bit.
2013-05-22 12:22:34,036  INFO ActivityFacilitiesImpl:111     facility # 1
2013-05-22 12:22:34,053  INFO ActivityFacilitiesImpl:111     facility # 2
2013-05-22 12:22:34,053  INFO ActivityFacilitiesImpl:111     facility # 4
2013-05-22 12:22:34,053  INFO ActivityFacilitiesImpl:111     facility # 8
2013-05-22 12:22:34,053  INFO ActivityFacilitiesImpl:111     facility # 16
2013-05-22 12:22:34,053  INFO ActivityFacilitiesImpl:111     facility # 23
2013-05-22 12:22:34,053  INFO ScenarioLoaderImpl:220 loading population from ./input/population.xml
2013-05-22 12:22:34,084  INFO MatsimPopulationReader:86 using population_v5-reader.
2013-05-22 12:22:34,084  INFO MatsimXmlParser:215 Trying to load http://www.matsim.org/files/dtd/population_v5.dtd. In some cases (e.g. network interface up but no connection), this may take a bit.
2013-05-22 12:22:34,522  INFO PopulationImpl:181  person # 1
2013-05-22 12:22:34,522  INFO PopulationImpl:181  person # 2
2013-05-22 12:22:34,522  INFO PopulationImpl:181  person # 4
2013-05-22 12:22:34,522  INFO PopulationImpl:181  person # 8
2013-05-22 12:22:34,537  INFO PopulationImpl:181  person # 16
2013-05-22 12:22:34,537  INFO PopulationImpl:181  person # 32
2013-05-22 12:22:34,553  INFO PopulationImpl:181  person # 64
2013-05-22 12:22:34,568  INFO PopulationImpl:181  person # 128
2013-05-22 12:22:34,568  INFO PopulationImpl:181  person # 145
2013-05-22 12:22:34,568  INFO ScenarioLoaderImpl:236 no person-attributes file set in config, not loading any person attributes
2013-05-22 12:22:34,600  INFO CalcLinkStats:128  resetting `count' to zero.  This info is here since we want to check when this is happening during normal simulation runs.  kai, jan'11
2013-05-22 12:22:34,834  INFO EventsManagerImpl:160 adding Event-Handler: org.matsim.analysis.VolumesAnalyzer
2013-05-22 12:22:34,834  INFO EventsManagerImpl:164   org.matsim.core.api.experimental.events.handler.LinkLeaveEventHandler
2013-05-22 12:22:34,850  INFO EventsManagerImpl:241     > org.matsim.core.api.experimental.events.LinkLeaveEvent
2013-05-22 12:22:34,850  INFO EventsManagerImpl:172 
2013-05-22 12:22:34,850  INFO EventsManagerImpl:160 adding Event-Handler: org.matsim.analysis.CalcLegTimes
2013-05-22 12:22:34,850  INFO EventsManagerImpl:164   org.matsim.core.api.experimental.events.handler.AgentDepartureEventHandler
2013-05-22 12:22:34,850  INFO EventsManagerImpl:241     > org.matsim.core.api.experimental.events.AgentDepartureEvent
2013-05-22 12:22:34,850  INFO EventsManagerImpl:164   org.matsim.core.api.experimental.events.handler.AgentArrivalEventHandler
2013-05-22 12:22:34,850  INFO EventsManagerImpl:241     > org.matsim.core.api.experimental.events.AgentArrivalEvent
2013-05-22 12:22:34,850  INFO EventsManagerImpl:164   org.matsim.core.api.experimental.events.handler.ActivityEndEventHandler
2013-05-22 12:22:34,850  INFO EventsManagerImpl:241     > org.matsim.core.api.experimental.events.ActivityEndEvent
2013-05-22 12:22:34,850  INFO EventsManagerImpl:164   org.matsim.core.api.experimental.events.handler.ActivityStartEventHandler
2013-05-22 12:22:34,850  INFO EventsManagerImpl:241     > org.matsim.core.api.experimental.events.ActivityStartEvent
2013-05-22 12:22:34,881  INFO EventsManagerImpl:172 
2013-05-22 12:22:34,897  INFO EventsManagerImpl:160 adding Event-Handler: org.matsim.analysis.LegHistogram
2013-05-22 12:22:34,897  INFO EventsManagerImpl:164   org.matsim.core.api.experimental.events.handler.AgentDepartureEventHandler
2013-05-22 12:22:34,897  INFO EventsManagerImpl:241     > org.matsim.core.api.experimental.events.AgentDepartureEvent
2013-05-22 12:22:34,897  INFO EventsManagerImpl:164   org.matsim.core.api.experimental.events.handler.AgentArrivalEventHandler
2013-05-22 12:22:34,897  INFO EventsManagerImpl:241     > org.matsim.core.api.experimental.events.AgentArrivalEvent
2013-05-22 12:22:34,897  INFO EventsManagerImpl:164   org.matsim.core.api.experimental.events.handler.AgentStuckEventHandler
2013-05-22 12:22:34,897  INFO EventsManagerImpl:241     > org.matsim.core.api.experimental.events.AgentStuckEvent
2013-05-22 12:22:34,912  INFO EventsManagerImpl:172 
2013-05-22 12:22:34,912  INFO ControlerListenerManager:124 calling notifyStartup on org.matsim.analysis.TravelDistanceStats
2013-05-22 12:22:34,912  INFO ControlerListenerManager:124 calling notifyStartup on org.matsim.analysis.ScoreStats
2013-05-22 12:22:34,912  INFO ControlerListenerManager:128 all ControlerStartupListeners called.
2013-05-22 12:22:34,912  INFO AbstractController:203 config dump before iterations start
2013-05-22 12:22:34,928  INFO AbstractController:207 

<?xml version="1.0" encoding="UTF-8"?>
<!DOCTYPE config SYSTEM "http://www.matsim.org/files/dtd/config_v1.dtd">
<config>

<!-- ====================================================================== -->

	<module name="TimeAllocationMutator" >

		<!-- Defines how many seconds a time mutation can maximally shift a time. -->
		<param name="mutationRange" value="1800.0" />
	</module>

<!-- ====================================================================== -->

	<module name="controler" >
		<param name="enableLinkToLinkRouting" value="false" />

		<!-- Specifies the file format for writing events. Currently supported: txt, xml. Multiple values can be specified separated by commas (','). -->
		<param name="eventsFileFormat" value="xml" />

		<param name="firstIteration" value="0" />
		<param name="lastIteration" value="9" />

		<!-- Defines which mobility simulation will be used. Currently supported: queueSimulation qsim JDEQSim multimodalQSim 
Depending on the chosen mobsim, you'll have to add additional config modules to configure the corresponding mobsim.
For 'qsim', add a module 'qsim' to the config.
For 'queueSimulation', add a module 'simulation' to the config. -->
		<param name="mobsim" value="qsim" />

		<param name="outputDirectory" value="./output" />

		<!-- The type of routing (least cost path) algorithm used, may have the values: Dijkstra, FastDijkstra, AStarLandmarks or FastAStarLandmarks -->
		<param name="routingAlgorithmType" value="Dijkstra" />

		<!-- An identifier for the current run which is used as prefix for output files and mentioned in output xml files etc. -->
		<param name="runId" value="run0" />

		<!-- Comma-separated list of visualizer output file formats. `transims', `googleearth', and `otfvis'. -->
		<param name="snapshotFormat" value="" />

		<!-- iterationNumber % writeEventsInterval == 0 defines in which iterations events are written to a file. `0' disables events writing completely. -->
		<param name="writeEventsInterval" value="10" />

		<!-- iterationNumber % writePlansInterval == 0 defines (hopefully) in which iterations plans are written to a file. `0' disables plans writing completely.  Some plans in early iterations are always written -->
		<param name="writePlansInterval" value="1" />

		<!-- iterationNumber % writeSnapshotsInterval == 0 defines in which iterations snapshots are written to a file. `0' disables snapshots writing completely -->
		<param name="writeSnapshotsInterval" value="10" />
	</module>

<!-- ====================================================================== -->

	<module name="counts" >

		<!-- Specifies over how many iterations the link volumes should be averaged that are used for the counts comparison. Use 1 or 0 to only use the link volumes of a single iteration. This values cannot be larger than the value specified for writeCountsInterval -->
		<param name="averageCountsOverIterations" value="5" />

		<!-- factor by which to re-scale the simulated values.  necessary when simulation runs with something different from 100%.  needs to be adapted manually -->
		<param name="countsScaleFactor" value="1.0" />

		<!-- distance to distanceFilterCenterNode to include counting stations. The unit of distance is the Euclidean distance implied by the coordinate system -->
		<param name="distanceFilter" value="12000.0" />

		<!-- node id for center node of distance filter -->
		<param name="distanceFilterCenterNode" value="2531" />

		<!-- input file name to counts package -->
		<param name="inputCountsFile" value="null" />

		<!-- possible values: `html', `kml', `txt', `all' -->
		<param name="outputformat" value="all" />

		<!-- Specifies how often the counts comparison should be calculated and written. -->
		<param name="writeCountsInterval" value="10" />
	</module>

<!-- ====================================================================== -->

	<module name="facilities" >
		<param name="inputFacilitiesFile" value="./input/facilities.xml.gz" />
	</module>

<!-- ====================================================================== -->

	<module name="global" >
		<param name="coordinateSystem" value="CH1903_LV03" />
		<param name="numberOfThreads" value="4" />
		<param name="randomSeed" value="5399998864266990000" />
	</module>

<!-- ====================================================================== -->

	<module name="households" >
		<param name="inputFile" value="null" />
	</module>

<!-- ====================================================================== -->

	<module name="linkStats" >

		<!-- Specifies over how many iterations the link volumes should be averaged that are used for the link statistics. Use 1 or 0 to only use the link volumes of a single iteration. This values cannot be larger than the value specified for writeLinkStatsInterval -->
		<param name="averageLinkStatsOverIterations" value="5" />

		<!-- Specifies how often the link stats should be calculated and written. Use 0 to disable the generation of link stats. -->
		<param name="writeLinkStatsInterval" value="10" />
	</module>

<!-- ====================================================================== -->

	<module name="locationchoice" >
		<param name="algorithm" value="random" />
		<param name="analysisBinSize" value="20000.0" />
		<param name="analysisBoundary" value="200000.0" />
		<param name="centerNode" value="null" />
		<param name="destinationSamplePercent" value="100.0" />
		<param name="epsilonDistribution" value="gumbel" />
		<param name="epsilonScaleFactors" value="null" />
		<param name="fAttributesFileName" value="null" />
		<param name="fkValuesFile" value="null" />
		<param name="flexible_types" value="null" />
		<param name="idExclusion" value="2147483647" />
		<param name="maxDCScoreFile" value="null" />
		<param name="maxDistanceDCScore" value="-1.0" />
		<param name="maxRecursions" value="1" />
		<param name="pBetasFileName" value="null" />
		<param name="pkValuesFile" value="null" />
		<param name="planSelector" value="SelectExpBeta" />
		<param name="probChoiceSetSize" value="10" />
		<param name="radius" value="null" />
		<param name="randomSeed" value="221177" />
		<param name="recursionTravelSpeed" value="8.5" />
		<param name="recursionTravelSpeedChange" value="0.1" />
		<param name="restraintFcnExp" value="0.0" />
		<param name="restraintFcnFactor" value="0.0" />
		<param name="scaleFactor" value="1" />
		<param name="tt_approximationLevel" value="0" />
	</module>

<!-- ====================================================================== -->

	<module name="multimodal" >

		<!-- Use this, if your network is not multi modal. Links with free speeds that are lower than the specified cutoff value will be usable for walk and bike trips. -->
		<param name="createMultiModalNetwork" value="false" />

		<!-- Only used, if createMultiModalNetwork is enabled (set value in m/s). -->
		<param name="cuttoffValueForNonCarModes" value="22.22222222222222" />

		<param name="dropNonCarRoutes" value="false" />
		<param name="multiModalSimulationEnabled" value="false" />

		<!-- Use number of threads > 1 for parallel version using the specified number of threads. -->
		<param name="numberOfThreads" value="1" />

		<param name="simulatedModes" value="pt,walk,ride,bike" />
	</module>

<!-- ====================================================================== -->

	<module name="network" >
		<param name="inputChangeEventsFile" value="./input/roadClosure.xml" />
		<param name="inputNetworkFile" value="./input/network.xml" />
		<param name="laneDefinitionsFile" value="null" />
		<param name="timeVariantNetwork" value="true" />
	</module>

<!-- ====================================================================== -->

	<module name="otfvis" >

		<!-- The (initial) size of the agents.  Only a range of numbers is allowed, otherwise otfvis aborts rather ungracefully, or displays no agents at all. -->
		<param name="agentSize" value="120.0" />

		<!-- coloring scheme for otfvis.  Currently (2012) allowed values: standard bvg bvg2 byId gtfs -->
		<param name="coloringScheme" value="standard" />

		<!-- If non-moving items (e.g. agents at activities, at bus stops, etc.) should be showed.  May affect all non-moving items. -->
		<param name="drawNonMovingItems" value="false" />

		<param name="drawTransitFacilities" value="true" />
		<param name="drawTransitFacilityIds" value="true" />
		<param name="leftMouseFunc" value="Zoom" />

		<!-- The (initial) width of the links of the network. Use positive floating point values. -->
		<param name="linkWidth" value="30.0" />

		<!-- Link width is proportional to `numberOfLanes' or to `capacity'. -->
		<param name="linkwidthIsProportionalTo" value="numberOfLanes" />

		<!-- URL to get WMS tiles from. For a local GeoServer instance, use http://localhost:8080/geoserver/wms?service=WMS& -->
		<param name="mapBaseURL" value="" />

		<!-- The WMS layer to display. For GeoServer and a layer called clipped in workspace mz, use mz:clipped -->
		<param name="mapLayer" value="" />

		<!-- Render everything on top of map tiles. Default: From tiles.openstreetmap.org -->
		<param name="mapOverlayMode" value="false" />

		<param name="middleMouseFunc" value="Pan" />

		<!-- Shortens a link's start and end point in the visualization. -->
		<param name="nodeOffset" value="0.0" />

		<param name="rightMouseFunc" value="Select" />
		<param name="showTeleportation" value="false" />
	</module>

<!-- ====================================================================== -->

	<module name="parallelEventHandling" >

		<!-- estimated number of events during mobsim run, useful for configuration -->
		<param name="estimatedNumberOfEvents" value="null" />

		<!-- number of threads for parallel events handler.  0 or null means parallel events handler is disabled -->
		<param name="numberOfThreads" value="null" />
	</module>

<!-- ====================================================================== -->

	<module name="planCalcScore" >

		<!-- new_score = (1-learningRate)*old_score + learningRate * score_from_mobsim.  learning rates close to zero emulate score averaging, but slow down initial convergence -->
		<param name="learningRate" value="1.0" />

		<!-- logit model scale parameter. default: 2.  Has name and default value for historical reasons (see Bryan Raney's phd thesis).  Should be in strategyConfigGroup. -->
		<param name="BrainExpBeta" value="10.0" />

		<param name="PathSizeLogitBeta" value="1.0" />

		<!-- [utils/hr] utility for arriving late (i.e. after the latest start time).  normally negative -->
		<param name="lateArrival" value="-18.0" />

		<!-- [utils/hr] utility for departing early (i.e. before the earliest end time).  Probably implemented correctly, but not tested. -->
		<param name="earlyDeparture" value="-0.0" />

		<!-- [utils/hr] marginal utility of doing an activity.  normally positive.  also the opportunity cost of time if agent is doing nothing. -->
		<param name="performing" value="6.0" />

		<!-- [utils/hr] additional marginal utility of traveling by car.  normally negative.  this comes on top of the opportunity cost of time -->
		<param name="traveling" value="-6.0" />

		<!-- [utils/hr] additional marginal utility offset of traveling by pt.  normally negative.  this comes on top of the opportunity cost of time -->
		<param name="travelingPt" value="-6.0" />

		<!-- [utils/hr] additional marginal utility offset of traveling by foot.  normally negative.  this comes on top of the opportunity cost of time.  also see marginalUtlOfDistanceWalk -->
		<param name="travelingWalk" value="-6.0" />

		<param name="travelingOther" value="-6.0" />
		<param name="travelingBike" value="-6.0" />

		<!-- [utils/hr] utility offset for waiting.  this comes on top of the opportunity cost of time.  Probably implemented correctly, but not tested. -->
		<param name="waiting" value="-0.0" />

		<!-- [utils/hr] utility offset for waiting for a pt vehicle.  this comes on top of the opportunity cost of time. Default: if not set explicitly, it is equal to traveling_pt!!! -->
		<param name="waitingPt" value="-6.0" />

		<!-- [utils/m] utility of walking per m, normally negative.  this is on top of the time (dis)utility. -->
		<param name="marginalUtlOfDistanceWalk" value="0.0" />

		<param name="marginalUtlOfDistanceOther" value="0.0" />

		<!-- [utils/unit_of_money] conversion of money (e.g. toll, distance cost) into utils -->
		<param name="marginalUtilityOfMoney" value="1.0" />

		<!-- [unit_of_money/m] conversion of car distance into money. Probably needs to be negative to work. -->
		<param name="monetaryDistanceCostRateCar" value="0.0" />

		<!-- [unit_of_money/m] conversion of pt distance into money. Probably needs to be negative to work. -->
		<param name="monetaryDistanceCostRatePt" value="0.0" />

		<!-- [utils] utility of switching a line (= transfer penalty).  Normally negative -->
		<param name="utilityOfLineSwitch" value="-1.0" />

		<!-- [utils] alternative-specific constant for car.  no guarantee that this is used anywhere. default=0 to be backwards compatible for the time being -->
		<param name="constantCar" value="0.0" />

		<!-- [utils] alternative-specific constant for walk.  no guarantee that this is used anywhere. default=0 to be backwards compatible for the time being -->
		<param name="constantWalk" value="0.0" />

		<param name="constantOther" value="0.0" />

		<!-- [utils] alternative-specific constant for bike.  no guarantee that this is used anywhere. default=0 to be backwards compatible for the time being -->
		<param name="constantBike" value="0.0" />

		<!-- [utils] alternative-specific constant for pt.  no guarantee that this is used anywhere. default=0 to be backwards compatible for the time being -->
		<param name="constantPt" value="0.0" />

		<!-- write a plans file in each iteration directory which contains what each agent actually did, and the score it received. -->
		<param name="writeExperiencedPlans" value="false" />

		<!--  ============================  -->
		<param name="activityType_0" value="origin" />

		<param name="activityPriority_0" value="1.0" />
		<param name="activityTypicalDuration_0" value="12:00:00" />
		<param name="activityMinimalDuration_0" value="08:00:00" />
		<param name="activityOpeningTime_0" value="undefined" />
		<param name="activityLatestStartTime_0" value="undefined" />
		<param name="activityEarliestEndTime_0" value="undefined" />
		<param name="activityClosingTime_0" value="undefined" />

		<!--  ============================  -->
		<param name="activityType_1" value="destination" />

		<param name="activityPriority_1" value="1.0" />
		<param name="activityTypicalDuration_1" value="12:00:00" />
		<param name="activityMinimalDuration_1" value="08:00:00" />
		<param name="activityOpeningTime_1" value="undefined" />
		<param name="activityLatestStartTime_1" value="undefined" />
		<param name="activityEarliestEndTime_1" value="undefined" />
		<param name="activityClosingTime_1" value="undefined" />
	</module>

<!-- ====================================================================== -->

	<module name="plans" >

		<!-- Path to a file containing person attributes (required file format: ObjectAttributes). -->
		<param name="inputPersonAttributesFile" value="null" />

		<param name="inputPlansFile" value="./input/population.xml" />

		<!-- Defines how routes are stored in memory. Currently supported: LinkNetworkRoute, CompressedNetworkRoute. -->
		<param name="networkRouteType" value="LinkNetworkRoute" />
	</module>

<!-- ====================================================================== -->

	<module name="planscalcroute" >

		<!-- factor with which beeline distances (and therefore times) are multiplied in order to obtain an estimate of the network distances/times.  Default is something like 1.3 -->
		<param name="beelineDistanceFactor" value="1.3" />

		<!-- All the modes for which the router is supposed to generate network routes (like car) -->
		<param name="networkModes" value="car,ride" />

		<!-- Free-speed factor for a teleported mode based on freespeed: freespeedFactor * <freespeed car travel time>. Insert a line like this for every such mode. freespeedFactor wins over teleportedModeSpeed, if both are set (says michaz). -->
		<param name="teleportedModeFreespeedFactor_pt" value="2.0" />

		<!-- Speed for a teleported mode based on beeline-distance: (<beeline distance> * beelineDistanceFactor) / speed. Insert a line like this for every such mode. -->
		<param name="teleportedModeSpeed_bike" value="4.166666666666667" />

		<!-- Speed for a teleported mode based on beeline-distance: (<beeline distance> * beelineDistanceFactor) / speed. Insert a line like this for every such mode. -->
		<param name="teleportedModeSpeed_undefined" value="13.88888888888889" />

		<!-- Speed for a teleported mode based on beeline-distance: (<beeline distance> * beelineDistanceFactor) / speed. Insert a line like this for every such mode. -->
		<param name="teleportedModeSpeed_walk" value="0.8333333333333333" />
	</module>

<!-- ====================================================================== -->

	<module name="ptCounts" >

		<!-- factor by which to re-scale the simulated values.  necessary when simulation runs with something different from 100%.  needs to be adapted manually -->
		<param name="countsScaleFactor" value="1.0" />

		<!-- distance to distanceFilterCenterNode to include counting stations. The unit of distance is the Euclidean distance implied by the coordinate system -->
		<param name="distanceFilter" value="null" />

		<!-- node id for center node of distance filter -->
		<param name="distanceFilterCenterNode" value="null" />

		<!-- input file containing the alighting (getting off) counts for pt -->
		<param name="inputAlightCountsFile" value="null" />

		<!-- input file containing the boarding (getting on) counts for pt -->
		<param name="inputBoardCountsFile" value="null" />

		<!-- input file containing the occupancy counts for pt -->
		<param name="inputOccupancyCountsFile" value="null" />

		<!-- possible values: `html', `kml', `txt', `all' -->
		<param name="outputformat" value="null" />

		<!-- every how many iterations (starting with 0) counts comparisons are generated -->
		<param name="ptCountsInterval" value="10" />
	</module>

<!-- ====================================================================== -->

	<module name="qsim" >
		<param name="endTime" value="00:00:00" />
		<param name="flowCapacityFactor" value="1.0" />

		<!-- decides if waiting vehicles enter the network after or before the already driving vehicles were moved. Default: false -->
		<param name="insertingWaitingVehiclesBeforeDrivingVehicles" value="false" />

		<!-- Defines which mode should be the qsim `main' (=congested) mode. Technically, this is the mode that the departure handler of the netsimengine handles.  Effective cell size, effective lane width, flow capacity factor, and storage capacity factor need to be set with diligence.  Needs to be a vehicular mode to make sense. -->
		<param name="mainMode" value="car" />

		<!-- Use number of threads > 1 for parallel version using the specified number of threads -->
		<param name="numberOfThreads" value="1" />

		<!-- Boolean. `true': stuck vehicles are removed, aborting the plan; `false': stuck vehicles are forced into the next link. `false' is probably the better choice. -->
		<param name="removeStuckVehicles" value="true" />

		<!-- `maxOfStarttimeAndEarliestActivityEnd' (default behavior) or `onlyUseStarttime' -->
		<param name="simStarttimeInterpretation" value="maxOfStarttimeAndEarliestActivityEnd" />

		<!-- snapshotStyle: `equiDist' (vehicles equidistant on link) or `queue' (vehicles queued at end of link) or `withHolesExperimental' (experimental!!) -->
		<param name="snapshotStyle" value="equiDist" />

		<param name="snapshotperiod" value="00:00:10" />
		<param name="startTime" value="00:00:00" />
		<param name="storageCapacityFactor" value="1.0" />

		<!-- time in seconds.  Time after which the frontmost vehicle on a link is called `stuck' if it does not move. -->
		<param name="stuckTime" value="100.0" />

		<param name="timeStepSize" value="00:00:01" />

		<!-- `queue' for the standard queue model, `withHolesExperimental' (experimental!!) for the queue model with holes -->
		<param name="trafficDynamics" value="queue" />

		<!-- Defines what happens if an agent wants to depart, but the specified vehicle is not available. One of: teleport, wait, exception -->
		<param name="vehicleBehavior" value="teleport" />
	</module>

<!-- ====================================================================== -->

	<module name="roadpricing" >
	</module>

<!-- ====================================================================== -->

	<module name="scenario" >

		<!-- Set this parameter to true if households should be used, false if not. -->
		<param name="useHouseholds" value="false" />

		<!-- Set this parameter to true if knowledge should be used, false if not. -->
		<param name="useKnowledge" value="false" />

		<!-- Set this parameter to true if lanes should be used, false if not. -->
		<param name="useLanes" value="false" />

		<!-- Set this parameter to true if roadpricing should be used, false if not. -->
		<param name="useRoadpricing" value="false" />

		<!-- Set this parameter to true if signal systems should be used, false if not. -->
		<param name="useSignalsystems" value="false" />

		<!-- Set this parameter to true if transit should be simulated, false if not. -->
		<param name="useTransit" value="false" />

		<!-- Set this parameter to true if vehicles should be used, false if not. -->
		<param name="useVehicles" value="false" />
	</module>

<!-- ====================================================================== -->

	<module name="signalsystems" >
		<param name="ambertimes" value="null" />
		<param name="intergreentimes" value="null" />
		<param name="signalcontrol" value="null" />
		<param name="signalgroups" value="null" />
		<param name="signalsystems" value="null" />
		<param name="useAmbertimes" value="false" />
		<param name="useIntergreentimes" value="false" />
	</module>

<!-- ====================================================================== -->

	<module name="strategy" >
		<param name="ExternalExeConfigTemplate" value="null" />
		<param name="ExternalExeTimeOut" value="3600" />
		<param name="ExternalExeTmpFileRootDir" value="null" />

		<!-- iteration after which module will be disabled.  most useful for ``innovative'' strategies (new routes, new times, ...) -->
		<param name="ModuleDisableAfterIteration_1" value="null" />

		<!-- iteration after which module will be disabled.  most useful for ``innovative'' strategies (new routes, new times, ...) -->
		<param name="ModuleDisableAfterIteration_2" value="null" />

		<!-- iteration after which module will be disabled.  most useful for ``innovative'' strategies (new routes, new times, ...) -->
		<param name="ModuleDisableAfterIteration_3" value="null" />

		<!-- path to external executable (if applicable) -->
		<param name="ModuleExePath_1" value="null" />

		<!-- path to external executable (if applicable) -->
		<param name="ModuleExePath_2" value="null" />

		<!-- path to external executable (if applicable) -->
		<param name="ModuleExePath_3" value="null" />

		<!-- probability that a strategy is applied to a given a person.  despite its name, this really is a ``weight'' -->
		<param name="ModuleProbability_1" value="0.9" />

		<!-- probability that a strategy is applied to a given a person.  despite its name, this really is a ``weight'' -->
		<param name="ModuleProbability_2" value="0.1" />

		<!-- probability that a strategy is applied to a given a person.  despite its name, this really is a ``weight'' -->
		<param name="ModuleProbability_3" value="0.1" />

		<!-- name of strategy (if not full class name, resolved in StrategyManagerConfigLoader) -->
		<param name="Module_1" value="BestScore" />

		<!-- name of strategy (if not full class name, resolved in StrategyManagerConfigLoader) -->
		<param name="Module_2" value="ReRoute" />

		<!-- name of strategy (if not full class name, resolved in StrategyManagerConfigLoader) -->
		<param name="Module_3" value="TimeAllocationMutator" />

		<!-- maximum number of plans per agent.  ``0'' means ``infinity''.  Currently (2010), ``5'' is a good number -->
		<param name="maxAgentPlanMemorySize" value="5" />

		<!-- name of PlanSelector for plans removal.  If not full class name, resolved in StrategyManagerConfigLoader.  default is `null', which eventually calls SelectWorstPlan. This is not a good choice from a discrete choice theoretical perspective. Alternatives, however, have not been systematically tested. kai, feb'12 -->
		<param name="planSelectorForRemoval" value="null" />
	</module>

<!-- ====================================================================== -->

	<module name="subtourModeChoice" >

		<!-- Defines the chain-based modes, seperated by commas -->
		<param name="chainBasedModes" value="car,bike" />

		<!-- Defines whether car availability must be considered or not. A agent has no car only if it has no license, or never access to a car -->
		<param name="considerCarAvailability" value="false" />

		<!-- Defines all the modes available, including chain-based modes, seperated by commas -->
		<param name="modes" value="car,pt,bike,walk" />
	</module>

<!-- ====================================================================== -->

	<module name="transit" >

		<!-- Comma-separated list of transportation modes that are handled as transit. Defaults to 'pt'. -->
		<param name="transitModes" value="pt" />

		<!-- Input file containing the transit schedule to be simulated. -->
		<param name="transitScheduleFile" value="null" />

		<!-- Input file containing the vehicles used by the departures in the transit schedule. -->
		<param name="vehiclesFile" value="null" />
	</module>

<!-- ====================================================================== -->

	<module name="transitRouter" >

		<!-- additional time the router allocates when a line switch happens. Can be interpreted as a 'safety' time that agents need to safely transfer from one line to another -->
		<param name="additionalTransferTime" value="0.0" />

		<!-- step size to increase searchRadius if no stops are found -->
		<param name="extensionRadius" value="200.0" />

		<!-- maximum beeline distance between stops that agents could transfer to by walking -->
		<param name="maxBeelineWalkConnectionDistance" value="100.0" />

		<!-- the radius in which stop locations are searched, given a start or target coordinate -->
		<param name="searchRadius" value="1000.0" />
	</module>

<!-- ====================================================================== -->

	<module name="travelTimeCalculator" >

		<!-- Transport modes that will be respected by the travel time collector. 'car' is default, which includes also bussed from the pt simulation module. Use this parameter in combination with 'filterModes' = true! -->
		<param name="analyzedModes" value="car" />

		<param name="calculateLinkToLinkTravelTimes" value="false" />
		<param name="calculateLinkTravelTimes" value="true" />

		<!-- If true, link travel times from legs performed on modes not included in the 'analyzedModes' parameter are ignored. -->
		<param name="filterModes" value="false" />

		<!-- How to deal with congested time bins that have no link entry events. `optimistic' assumes free speed (too optimistic); 'experimental_LastMile' is experimental and probably too pessimistic. -->
		<param name="travelTimeAggregator" value="optimistic" />

		<!-- The size of the time bin (in sec) into which the link travel times are aggregated for the router -->
		<param name="travelTimeBinSize" value="900" />

		<param name="travelTimeCalculator" value="TravelTimeCalculatorArray" />

		<!-- How to deal with link entry times at different positions during the time bin. Currently supported: average, linearinterpolation -->
		<param name="travelTimeGetter" value="average" />
	</module>

<!-- ====================================================================== -->

	<module name="vspExperimental" >

		<!-- String: minOfDurationAndEndTime tryEndTimeThenDuration endTimeOnly. Anything besides minOfDurationAndEndTime will internally use a different (simpler) version of the TimeAllocationMutator. -->
		<param name="activityDurationInterpretation" value="minOfDurationAndEndTime" />

		<!-- REQUIRED: file with HBEFA 3.1 fleet average cold emission factors -->
		<param name="averageFleetColdEmissionFactorsFile" value="null" />

		<!-- REQUIRED: file with HBEFA 3.1 fleet average warm emission factors -->
		<param name="averageFleetWarmEmissionFactorsFile" value="null" />

		<!-- (do not use) set chainBasedModes for subTourModeChoice by Yu. E.g. "car,bike", "car" -->
		<param name="chainBasedModes" value="car" />

		<!-- OPTIONAL: file with HBEFA 3.1 detailed cold emission factors -->
		<param name="detailedColdEmissionFactorsFile" value="null" />

		<!-- OPTIONAL: file with HBEFA 3.1 detailed warm emission factors -->
		<param name="detailedWarmEmissionFactorsFile" value="null" />

		<!-- REQUIRED: mapping from input road types to HBEFA 3.1 road type strings -->
		<param name="emissionRoadTypeMappingFile" value="null" />

		<!-- definition of a vehicle for every person (who is allowed to choose a vehicle in the simulation):
 - REQUIRED: vehicle type Id must start with the respective HbefaVehicleCategory followed by `;'
 - OPTIONAL: if detailed emission calculation is switched on, vehicle type Id should aditionally contain HbefaVehicleAttributes (`Technology;SizeClasse;EmConcept'), corresponding to the strings in detailedWarmEmissionFactorsFile -->
		<param name="emissionVehicleFile" value="null" />

		<!-- (do not use) Set this filename of MZ05 daily analysis -->
		<param name="inputMZ05File" value="" />

		<!-- (do not use except of you have to) There was a problem with pt interaction scoring.  Some people solved it by overwriting the parameters of the pt interaction activity type.  Doing this now throws an Exception.  If you still insist on doing this, set the following to true. -->
		<param name="isAbleToOverwritePtInteractionParams" value="false" />

		<param name="isGeneratingBoardingDeniedEvent" value="false" />

		<!-- if an approximation of the opportunity cost of time is included into the radius calculation for location choice.`true' will be faster, but it is an approximation.  Default is `true'; `false' is available for backwards compatibility. -->
		<param name="isUsingOpportunityCostOfTimeForLocationChoice" value="true" />

		<param name="logitScaleParamForPlansRemoval" value="1." />

		<!-- changes MATSim's global time format used in output files. Can be used to enforce writing fractional seconds e.g. in output_plans.  default is `hh:mm:ss' (because of backwards compatibility). see Time.java for possible formats -->
		<param name="matsimGlobalTimeformat" value="HH:mm:ss" />

		<!-- (do not use) set the traffic mode option for subTourModeChoice by Yu -->
		<param name="modes" value="car, pt" />

		<!-- (not tested) will remove plan attributes that are presumably not used, such as activityStartTime. default=false -->
		<param name="removingUnnecessaryPlanAttributes" value="false" />

		<!-- first iteration of MSA score averaging. The matsim theory department suggests to use this together with switching of choice set innovation, but it has not been tested yet. -->
		<param name="scoreMSAStartsAtIteration" value="null" />

		<!-- if true then detailed emission factor files must be provided! -->
		<param name="usingDetailedEmissionCalculation" value="false" />

		<!-- indicates if, for routing, the opportunity cost of time should be added to the mode-specific marginal utilities of time.
		Default is true; false is possible only for backwards compatibility.
		This is only a suggestion since there is (by matsim design) no way to enforce that mental modules obey this. -->
		<param name="usingOpportunityCostOfTimeForPtRouting" value="true" />

		<!-- Options: `ignore', `warn', `abort'.  Default: either `ignore' or `warn'.
		When violating VSP defaults, this results in nothing, warnings, or aborts.  Members of VSP should use `abort' or talk to kai. -->
		<param name="vspDefaultsCheckingLevel" value="ignore" />

		<!-- if true then writes output_events in output directory.  default is `false'. Will only work when lastIteration is multiple of events writing interval -->
		<param name="writingOutputEvents" value="false" />
	</module>

<!-- ====================================================================== -->

</config>

2013-05-22 12:22:34,928  INFO AbstractController:208 Complete config dump done.
2013-05-22 12:22:34,928  INFO AbstractController:209 Checking consistency of config...
2013-05-22 12:22:34,928  INFO PlanCalcScoreConfigGroup:399 NO OPENING OR CLOSING TIMES DEFINED!


There is no activity type that has an opening *and* closing time (or opening time and late penalty) defined.
This usually means that the activity chains can be shifted by an arbitrary
number of hours without having an effect on the score of the plans, and thus
resulting in wrong results / traffic patterns.
If you are using MATSim without time adaptation, you can ignore this warning.



2013-05-22 12:22:34,928  INFO AbstractController:211 Checking consistency of config done.
2013-05-22 12:22:34,944  INFO EventsManagerImpl:160 adding Event-Handler: org.matsim.core.trafficmonitoring.TravelTimeCalculator
2013-05-22 12:22:34,944  INFO EventsManagerImpl:164   org.matsim.core.api.experimental.events.handler.LinkEnterEventHandler
2013-05-22 12:22:34,944  INFO EventsManagerImpl:241     > org.matsim.core.api.experimental.events.LinkEnterEvent
2013-05-22 12:22:34,944  INFO EventsManagerImpl:164   org.matsim.core.api.experimental.events.handler.LinkLeaveEventHandler
2013-05-22 12:22:34,944  INFO EventsManagerImpl:241     > org.matsim.core.api.experimental.events.LinkLeaveEvent
2013-05-22 12:22:34,944  INFO EventsManagerImpl:164   org.matsim.core.api.experimental.events.handler.AgentDepartureEventHandler
2013-05-22 12:22:34,944  INFO EventsManagerImpl:241     > org.matsim.core.api.experimental.events.AgentDepartureEvent
2013-05-22 12:22:34,944  INFO EventsManagerImpl:164   org.matsim.core.api.experimental.events.handler.AgentArrivalEventHandler
2013-05-22 12:22:34,944  INFO EventsManagerImpl:241     > org.matsim.core.api.experimental.events.AgentArrivalEvent
2013-05-22 12:22:34,944  INFO EventsManagerImpl:164   org.matsim.core.events.handler.VehicleArrivesAtFacilityEventHandler
2013-05-22 12:22:34,944  INFO EventsManagerImpl:241     > org.matsim.core.api.experimental.events.VehicleArrivesAtFacilityEvent
2013-05-22 12:22:34,944  INFO EventsManagerImpl:164   org.matsim.core.events.handler.TransitDriverStartsEventHandler
2013-05-22 12:22:34,944  INFO EventsManagerImpl:241     > org.matsim.core.api.experimental.events.TransitDriverStartsEvent
2013-05-22 12:22:34,944  INFO EventsManagerImpl:164   org.matsim.core.api.experimental.events.handler.AgentStuckEventHandler
2013-05-22 12:22:34,944  INFO EventsManagerImpl:241     > org.matsim.core.api.experimental.events.AgentStuckEvent
2013-05-22 12:22:34,944  INFO EventsManagerImpl:172 
2013-05-22 12:22:35,053  INFO NetworkImpl:489 building QuadTree for nodes: xrange(2366125.860053187,2373448.621555559); yrange(881824.5471436838,894496.0707411397)
2013-05-22 12:22:35,085  INFO NetworkImpl:498 Building QuadTree took 0.032 seconds.
2013-05-22 12:22:35,132  INFO Counter:51 [PersonPrepareForSim] handled person # 1
2013-05-22 12:22:35,148  INFO Counter:51 [PersonPrepareForSim] handled person # 2
2013-05-22 12:22:35,320  INFO Counter:51 [PersonPrepareForSim] handled person # 4
2013-05-22 12:22:35,335  INFO Counter:51 [PersonPrepareForSim] handled person # 8
2013-05-22 12:22:35,366  INFO Counter:51 [PersonPrepareForSim] handled person # 16
2013-05-22 12:22:35,507  INFO Counter:51 [PersonPrepareForSim] handled person # 32
2013-05-22 12:22:35,851  INFO Counter:51 [PersonPrepareForSim] handled person # 64
2013-05-22 12:22:36,898  INFO Counter:51 [PersonPrepareForSim] handled person # 128
2013-05-22 12:22:37,118  INFO Counter:57 [PersonPrepareForSim] handled person # 145
2013-05-22 12:22:37,118  INFO AbstractController:156 ###################################################
2013-05-22 12:22:37,118  INFO AbstractController:157 ### ITERATION 0 BEGINS
2013-05-22 12:22:37,118  INFO ControlerListenerManager:159 calling notifyIterationStarts on org.matsim.core.controler.corelisteners.PlansScoring
2013-05-22 12:22:37,149  INFO EventsManagerImpl:160 adding Event-Handler: org.matsim.core.scoring.EventsToScore
2013-05-22 12:22:37,149  INFO EventsManagerImpl:164   org.matsim.core.events.handler.BasicEventHandler
2013-05-22 12:22:37,149  INFO EventsManagerImpl:241     > org.matsim.core.api.experimental.events.Event
2013-05-22 12:22:37,149  INFO EventsManagerImpl:172 
2013-05-22 12:22:37,149  INFO ControlerListenerManager:164 calling notifyIterationStarts on org.matsim.core.controler.corelisteners.LinkStatsControlerListener
2013-05-22 12:22:37,149  INFO ControlerListenerManager:164 calling notifyIterationStarts on org.matsim.core.controler.corelisteners.LegHistogramListener
2013-05-22 12:22:37,149  INFO ControlerListenerManager:167 [it.0] all ControlerIterationStartsListeners called.
2013-05-22 12:22:37,149  INFO ControlerListenerManager:247 calling notifyBeforeMobsim on org.matsim.core.controler.corelisteners.EventsHandling
2013-05-22 12:22:37,149  INFO EventsManagerImpl:195 resetting Event-Handlers
2013-05-22 12:22:37,149  INFO EventsManagerImpl:202   org.matsim.analysis.VolumesAnalyzer
2013-05-22 12:22:37,149  INFO EventsManagerImpl:202   org.matsim.core.trafficmonitoring.TravelTimeCalculator
2013-05-22 12:22:37,180  INFO EventsManagerImpl:202   org.matsim.analysis.CalcLegTimes
2013-05-22 12:22:37,180  INFO EventsManagerImpl:202   org.matsim.analysis.LegHistogram
2013-05-22 12:22:37,180  INFO EventsManagerImpl:202   org.matsim.core.scoring.EventsToScore
2013-05-22 12:22:37,180  INFO EventsManagerImpl:160 adding Event-Handler: org.matsim.core.events.algorithms.EventWriterXML
2013-05-22 12:22:37,180  INFO EventsManagerImpl:164   org.matsim.core.events.algorithms.EventWriter
2013-05-22 12:22:37,180  INFO EventsManagerImpl:164   org.matsim.core.events.handler.BasicEventHandler
2013-05-22 12:22:37,180  INFO EventsManagerImpl:241     > org.matsim.core.api.experimental.events.Event
2013-05-22 12:22:37,196  INFO EventsManagerImpl:172 
2013-05-22 12:22:37,196  INFO ControlerListenerManager:247 calling notifyBeforeMobsim on org.matsim.core.controler.corelisteners.PlansDumping
2013-05-22 12:22:37,196  INFO PlansDumping:77 dumping plans...
2013-05-22 12:22:37,196  INFO Counter:51 [PopulationWriter] dumped person # 1
2013-05-22 12:22:37,196  INFO Counter:51 [PopulationWriter] dumped person # 2
2013-05-22 12:22:37,196  INFO Counter:51 [PopulationWriter] dumped person # 4
2013-05-22 12:22:37,211  INFO Counter:51 [PopulationWriter] dumped person # 8
2013-05-22 12:22:37,211  INFO Counter:51 [PopulationWriter] dumped person # 16
2013-05-22 12:22:37,227  INFO Counter:51 [PopulationWriter] dumped person # 32
2013-05-22 12:22:37,243  INFO Counter:51 [PopulationWriter] dumped person # 64
2013-05-22 12:22:37,258  INFO Counter:51 [PopulationWriter] dumped person # 128
[...]
2013-05-22 12:23:10,997  INFO AbstractController:157 ### ITERATION 9 BEGINS
2013-05-22 12:23:10,997  INFO ControlerListenerManager:159 calling notifyIterationStarts on org.matsim.core.controler.corelisteners.PlansScoring
2013-05-22 12:23:11,013  INFO EventsManagerImpl:160 adding Event-Handler: org.matsim.core.scoring.EventsToScore
2013-05-22 12:23:11,013  INFO EventsManagerImpl:164   org.matsim.core.events.handler.BasicEventHandler
2013-05-22 12:23:11,013  INFO EventsManagerImpl:241     > org.matsim.core.api.experimental.events.Event
2013-05-22 12:23:11,013  INFO EventsManagerImpl:172 
2013-05-22 12:23:11,013  INFO ControlerListenerManager:164 calling notifyIterationStarts on org.matsim.core.controler.corelisteners.LinkStatsControlerListener
2013-05-22 12:23:11,013  INFO ControlerListenerManager:164 calling notifyIterationStarts on org.matsim.core.controler.corelisteners.LegHistogramListener
2013-05-22 12:23:11,013  INFO ControlerListenerManager:167 [it.9] all ControlerIterationStartsListeners called.
2013-05-22 12:23:11,013  INFO ControlerListenerManager:227 calling notifyReplanning on org.matsim.core.controler.corelisteners.PlansReplanning
2013-05-22 12:23:11,029  INFO PlanStrategyImpl:125 Plan-Strategy finished, 120 plans handled. Strategy: BestPlanSelector
2013-05-22 12:23:11,029  INFO AbstractMultithreadedModule:140 [PlanRouter] starting threads, handling 16 plans
2013-05-22 12:23:11,060  INFO Counter:51 [PlanRouter] handled plan # 1
2013-05-22 12:23:11,076  INFO Counter:51 [PlanRouter] handled plan # 2
2013-05-22 12:23:11,123  INFO Counter:51 [PlanRouter] handled plan # 4
2013-05-22 12:23:11,248  INFO Counter:51 [PlanRouter] handled plan # 8
2013-05-22 12:23:11,420  INFO Counter:51 [PlanRouter] handled plan # 16
2013-05-22 12:23:11,420  INFO AbstractMultithreadedModule:155 [PlanRouter] all threads finished.
2013-05-22 12:23:11,420  INFO PlanStrategyImpl:125 Plan-Strategy finished, 16 plans handled. Strategy: RandomPlanSelector_ReRoute
2013-05-22 12:23:11,435  INFO AbstractMultithreadedModule:140 [PlanMutateTimeAllocation] starting threads, handling 9 plans
2013-05-22 12:23:11,435  INFO Counter:51 [PlanMutateTimeAllocation] handled plan # 1
2013-05-22 12:23:11,435  INFO Counter:51 [PlanMutateTimeAllocation] handled plan # 2
2013-05-22 12:23:11,435  INFO Counter:51 [PlanMutateTimeAllocation] handled plan # 4
2013-05-22 12:23:11,435  INFO Counter:51 [PlanMutateTimeAllocation] handled plan # 8
2013-05-22 12:23:11,435  INFO AbstractMultithreadedModule:155 [PlanMutateTimeAllocation] all threads finished.
2013-05-22 12:23:11,435  INFO PlanStrategyImpl:125 Plan-Strategy finished, 9 plans handled. Strategy: RandomPlanSelector_TimeAllocationMutator
2013-05-22 12:23:11,435  INFO ControlerListenerManager:235 [it.9] all ControlerReplanningListeners called.
2013-05-22 12:23:11,435  INFO ControlerListenerManager:247 calling notifyBeforeMobsim on org.matsim.core.controler.corelisteners.EventsHandling
2013-05-22 12:23:11,435  INFO EventsManagerImpl:195 resetting Event-Handlers
2013-05-22 12:23:11,435  INFO EventsManagerImpl:202   org.matsim.analysis.VolumesAnalyzer
2013-05-22 12:23:11,435  INFO EventsManagerImpl:202   org.matsim.core.trafficmonitoring.TravelTimeCalculator
2013-05-22 12:23:11,451  INFO EventsManagerImpl:202   org.matsim.analysis.CalcLegTimes
2013-05-22 12:23:11,451  INFO EventsManagerImpl:202   org.matsim.analysis.LegHistogram
2013-05-22 12:23:11,451  INFO EventsManagerImpl:202   org.matsim.core.scoring.EventsToScore
2013-05-22 12:23:11,451  INFO ControlerListenerManager:247 calling notifyBeforeMobsim on org.matsim.core.controler.corelisteners.PlansDumping
2013-05-22 12:23:11,451  INFO PlansDumping:77 dumping plans...
2013-05-22 12:23:11,451  INFO Counter:51 [PopulationWriter] dumped person # 1
2013-05-22 12:23:11,451  INFO Counter:51 [PopulationWriter] dumped person # 2
2013-05-22 12:23:11,466  INFO Counter:51 [PopulationWriter] dumped person # 4
2013-05-22 12:23:11,466  INFO Counter:51 [PopulationWriter] dumped person # 8
2013-05-22 12:23:11,466  INFO Counter:51 [PopulationWriter] dumped person # 16
2013-05-22 12:23:11,482  INFO Counter:51 [PopulationWriter] dumped person # 32
2013-05-22 12:23:11,498  INFO Counter:51 [PopulationWriter] dumped person # 64
2013-05-22 12:23:11,545  INFO Counter:51 [PopulationWriter] dumped person # 128
2013-05-22 12:23:11,560  INFO Counter:57 [PopulationWriter] dumped person # 145
2013-05-22 12:23:11,560  INFO PopulationWriter:173 Population written to: ./output/ITERS/it.9/run0.9.plans.xml.gz
2013-05-22 12:23:11,560  INFO PlansDumping:79 finished plans dump.
2013-05-22 12:23:11,560  INFO ControlerListenerManager:255 [it.9] all ControlerBeforeMobsimListeners called.
2013-05-22 12:23:11,560  INFO QSim:169 Using QSim...
2013-05-22 12:23:11,763  INFO EventsManagerImpl:153  event # 1
2013-05-22 12:23:11,763  INFO EventsManagerImpl:153  event # 2
2013-05-22 12:23:11,763  INFO EventsManagerImpl:153  event # 4
2013-05-22 12:23:11,763  INFO QNetsimEngine:298 SIMULATION (QNetsimEngine) AT 01:00:00 : #links=0 #nodes=0
2013-05-22 12:23:11,763  INFO QSim:389 SIMULATION (NEW QSim) AT 01:00:00 : #Veh=145 lost=0 simT=0.0s realT=0s; (s/r): 0.0
2013-05-22 12:23:11,763  INFO Gbl:48 used RAM: 112707832B = 110066kB = 107MB  free: 77403912B = 73MB  total: 190111744B = 181MB
2013-05-22 12:23:11,763  INFO EventsManagerImpl:153  event # 8
2013-05-22 12:23:11,763  INFO EventsManagerImpl:153  event # 16
2013-05-22 12:23:11,763  INFO EventsManagerImpl:153  event # 32
2013-05-22 12:23:11,763  INFO EventsManagerImpl:153  event # 64
2013-05-22 12:23:11,763  INFO EventsManagerImpl:153  event # 128
2013-05-22 12:23:11,779  INFO QNetsimEngine:298 SIMULATION (QNetsimEngine) AT 02:00:00 : #links=0 #nodes=0
2013-05-22 12:23:11,779  INFO QSim:389 SIMULATION (NEW QSim) AT 02:00:00 : #Veh=142 lost=0 simT=3600.0s realT=0s; (s/r): Infinity
2013-05-22 12:23:11,779  INFO Gbl:48 used RAM: 114420936B = 111739kB = 109MB  free: 75690808B = 72MB  total: 190111744B = 181MB
2013-05-22 12:23:11,779  INFO QNetsimEngine:298 SIMULATION (QNetsimEngine) AT 03:00:00 : #links=2 #nodes=0
2013-05-22 12:23:11,779  INFO QSim:389 SIMULATION (NEW QSim) AT 03:00:00 : #Veh=142 lost=0 simT=7200.0s realT=0s; (s/r): Infinity
2013-05-22 12:23:11,795  INFO Gbl:48 used RAM: 115277504B = 112575kB = 109MB  free: 74834240B = 71MB  total: 190111744B = 181MB
2013-05-22 12:23:11,795  INFO EventsManagerImpl:153  event # 256
2013-05-22 12:23:11,795  INFO EventsManagerImpl:153  event # 512
2013-05-22 12:23:11,810  INFO QNetsimEngine:298 SIMULATION (QNetsimEngine) AT 04:00:00 : #links=3 #nodes=0
2013-05-22 12:23:11,810  INFO QSim:389 SIMULATION (NEW QSim) AT 04:00:00 : #Veh=138 lost=0 simT=10800.0s realT=0s; (s/r): Infinity
2013-05-22 12:23:11,810  INFO Gbl:48 used RAM: 116134056B = 113412kB = 110MB  free: 73977688B = 70MB  total: 190111744B = 181MB
2013-05-22 12:23:11,810  INFO EventsManagerImpl:153  event # 1024
2013-05-22 12:23:11,826  INFO QNetsimEngine:298 SIMULATION (QNetsimEngine) AT 05:00:00 : #links=3 #nodes=0
2013-05-22 12:23:11,826  INFO QSim:389 SIMULATION (NEW QSim) AT 05:00:00 : #Veh=134 lost=0 simT=14400.0s realT=0s; (s/r): Infinity
2013-05-22 12:23:11,826  INFO Gbl:48 used RAM: 116990608B = 114248kB = 111MB  free: 73121136B = 69MB  total: 190111744B = 181MB
2013-05-22 12:23:11,842  INFO EventsManagerImpl:153  event # 2048
2013-05-22 12:23:11,857  INFO QNetsimEngine:298 SIMULATION (QNetsimEngine) AT 06:00:00 : #links=0 #nodes=0
2013-05-22 12:23:11,857  INFO QSim:389 SIMULATION (NEW QSim) AT 06:00:00 : #Veh=128 lost=0 simT=18000.0s realT=0s; (s/r): Infinity
2013-05-22 12:23:11,857  INFO Gbl:48 used RAM: 118703712B = 115921kB = 113MB  free: 71408032B = 68MB  total: 190111744B = 181MB
2013-05-22 12:23:11,873  INFO QNetsimEngine:298 SIMULATION (QNetsimEngine) AT 07:00:00 : #links=2 #nodes=0
2013-05-22 12:23:11,873  INFO QSim:389 SIMULATION (NEW QSim) AT 07:00:00 : #Veh=122 lost=0 simT=21600.0s realT=0s; (s/r): Infinity
2013-05-22 12:23:11,873  INFO Gbl:48 used RAM: 119560264B = 116758kB = 114MB  free: 70551480B = 67MB  total: 190111744B = 181MB
2013-05-22 12:23:11,888  INFO EventsManagerImpl:153  event # 4096
2013-05-22 12:23:11,920  INFO QNetsimEngine:298 SIMULATION (QNetsimEngine) AT 08:00:00 : #links=3 #nodes=1
2013-05-22 12:23:11,920  INFO QSim:389 SIMULATION (NEW QSim) AT 08:00:00 : #Veh=115 lost=0 simT=25200.0s realT=0s; (s/r): Infinity
2013-05-22 12:23:11,920  INFO Gbl:48 used RAM: 121273368B = 118431kB = 115MB  free: 68838376B = 65MB  total: 190111744B = 181MB
2013-05-22 12:23:11,951  INFO EventsManagerImpl:153  event # 8192
2013-05-22 12:23:11,951  INFO QNetsimEngine:298 SIMULATION (QNetsimEngine) AT 09:00:00 : #links=4 #nodes=0
2013-05-22 12:23:11,951  INFO QSim:389 SIMULATION (NEW QSim) AT 09:00:00 : #Veh=107 lost=0 simT=28800.0s realT=0s; (s/r): Infinity
2013-05-22 12:23:11,967  INFO Gbl:48 used RAM: 122129920B = 119267kB = 116MB  free: 67981824B = 64MB  total: 190111744B = 181MB
2013-05-22 12:23:12,013  INFO QNetsimEngine:298 SIMULATION (QNetsimEngine) AT 10:00:00 : #links=11 #nodes=0
2013-05-22 12:23:12,029  INFO QSim:389 SIMULATION (NEW QSim) AT 10:00:00 : #Veh=80 lost=0 simT=32400.0s realT=0s; (s/r): Infinity
2013-05-22 12:23:12,029  INFO Gbl:48 used RAM: 123843024B = 120940kB = 118MB  free: 66268720B = 63MB  total: 190111744B = 181MB
2013-05-22 12:23:12,046  INFO QNetsimEngine:298 SIMULATION (QNetsimEngine) AT 11:00:00 : #links=0 #nodes=0
2013-05-22 12:23:12,046  INFO QSim:389 SIMULATION (NEW QSim) AT 11:00:00 : #Veh=68 lost=0 simT=36000.0s realT=0s; (s/r): Infinity
2013-05-22 12:23:12,046  INFO Gbl:48 used RAM: 124699576B = 121776kB = 118MB  free: 65412168B = 62MB  total: 190111744B = 181MB
2013-05-22 12:23:12,061  INFO QNetsimEngine:298 SIMULATION (QNetsimEngine) AT 12:00:00 : #links=0 #nodes=0
2013-05-22 12:23:12,061  INFO QSim:389 SIMULATION (NEW QSim) AT 12:00:00 : #Veh=65 lost=0 simT=39600.0s realT=0s; (s/r): Infinity
2013-05-22 12:23:12,061  INFO Gbl:48 used RAM: 125556128B = 122613kB = 119MB  free: 64555616B = 61MB  total: 190111744B = 181MB
2013-05-22 12:23:12,093  INFO QNetsimEngine:298 SIMULATION (QNetsimEngine) AT 13:00:00 : #links=0 #nodes=0
2013-05-22 12:23:12,093  INFO QSim:389 SIMULATION (NEW QSim) AT 13:00:00 : #Veh=60 lost=0 simT=43200.0s realT=0s; (s/r): Infinity
2013-05-22 12:23:12,093  INFO Gbl:48 used RAM: 127269248B = 124286kB = 121MB  free: 62842496B = 59MB  total: 190111744B = 181MB
2013-05-22 12:23:12,108  INFO EventsManagerImpl:153  event # 16384
2013-05-22 12:23:12,124  INFO QNetsimEngine:298 SIMULATION (QNetsimEngine) AT 14:00:00 : #links=0 #nodes=0
2013-05-22 12:23:12,124  INFO QSim:389 SIMULATION (NEW QSim) AT 14:00:00 : #Veh=58 lost=0 simT=46800.0s realT=0s; (s/r): Infinity
2013-05-22 12:23:12,124  INFO Gbl:48 used RAM: 128125800B = 125122kB = 122MB  free: 61985944B = 59MB  total: 190111744B = 181MB
2013-05-22 12:23:12,139  INFO QNetsimEngine:298 SIMULATION (QNetsimEngine) AT 15:00:00 : #links=1 #nodes=0
2013-05-22 12:23:12,139  INFO QSim:389 SIMULATION (NEW QSim) AT 15:00:00 : #Veh=52 lost=0 simT=50400.0s realT=0s; (s/r): Infinity
2013-05-22 12:23:12,139  INFO Gbl:48 used RAM: 128982352B = 125959kB = 123MB  free: 61129392B = 58MB  total: 190111744B = 181MB
2013-05-22 12:23:12,171  INFO QNetsimEngine:298 SIMULATION (QNetsimEngine) AT 16:00:00 : #links=2 #nodes=0
2013-05-22 12:23:12,186  INFO QSim:389 SIMULATION (NEW QSim) AT 16:00:00 : #Veh=43 lost=0 simT=54000.0s realT=0s; (s/r): Infinity
2013-05-22 12:23:12,186  INFO Gbl:48 used RAM: 130695456B = 127632kB = 124MB  free: 59416288B = 56MB  total: 190111744B = 181MB
2013-05-22 12:23:12,218  INFO QNetsimEngine:298 SIMULATION (QNetsimEngine) AT 17:00:00 : #links=2 #nodes=0
2013-05-22 12:23:12,218  INFO QSim:389 SIMULATION (NEW QSim) AT 17:00:00 : #Veh=34 lost=0 simT=57600.0s realT=0s; (s/r): Infinity
2013-05-22 12:23:12,218  INFO Gbl:48 used RAM: 131552008B = 128468kB = 125MB  free: 58559736B = 55MB  total: 190111744B = 181MB
2013-05-22 12:23:12,233  INFO QNetsimEngine:298 SIMULATION (QNetsimEngine) AT 18:00:00 : #links=0 #nodes=0
2013-05-22 12:23:12,233  INFO QSim:389 SIMULATION (NEW QSim) AT 18:00:00 : #Veh=33 lost=0 simT=61200.0s realT=0s; (s/r): Infinity
2013-05-22 12:23:12,233  INFO Gbl:48 used RAM: 132408560B = 129305kB = 126MB  free: 57703184B = 55MB  total: 190111744B = 181MB
2013-05-22 12:23:12,249  INFO QNetsimEngine:298 SIMULATION (QNetsimEngine) AT 19:00:00 : #links=2 #nodes=0
2013-05-22 12:23:12,249  INFO QSim:389 SIMULATION (NEW QSim) AT 19:00:00 : #Veh=30 lost=0 simT=64800.0s realT=0s; (s/r): Infinity
2013-05-22 12:23:12,249  INFO Gbl:48 used RAM: 133265128B = 130141kB = 127MB  free: 56846616B = 54MB  total: 190111744B = 181MB
2013-05-22 12:23:12,280  INFO QNetsimEngine:298 SIMULATION (QNetsimEngine) AT 20:00:00 : #links=0 #nodes=0
2013-05-22 12:23:12,280  INFO QSim:389 SIMULATION (NEW QSim) AT 20:00:00 : #Veh=30 lost=0 simT=68400.0s realT=0s; (s/r): Infinity
2013-05-22 12:23:12,280  INFO Gbl:48 used RAM: 134978232B = 131814kB = 128MB  free: 55133512B = 52MB  total: 190111744B = 181MB
2013-05-22 12:23:12,311  INFO QNetsimEngine:298 SIMULATION (QNetsimEngine) AT 21:00:00 : #links=8 #nodes=1
2013-05-22 12:23:12,311  INFO QSim:389 SIMULATION (NEW QSim) AT 21:00:00 : #Veh=22 lost=0 simT=72000.0s realT=0s; (s/r): Infinity
2013-05-22 12:23:12,311  INFO Gbl:48 used RAM: 135834784B = 132651kB = 129MB  free: 54276960B = 51MB  total: 190111744B = 181MB
2013-05-22 12:23:12,343  INFO QNetsimEngine:298 SIMULATION (QNetsimEngine) AT 22:00:00 : #links=2 #nodes=0
2013-05-22 12:23:12,343  INFO QSim:389 SIMULATION (NEW QSim) AT 22:00:00 : #Veh=14 lost=0 simT=75600.0s realT=0s; (s/r): Infinity
2013-05-22 12:23:12,343  INFO Gbl:48 used RAM: 136691336B = 133487kB = 130MB  free: 53420408B = 50MB  total: 190111744B = 181MB
2013-05-22 12:23:12,375  INFO QNetsimEngine:298 SIMULATION (QNetsimEngine) AT 23:00:00 : #links=2 #nodes=1
2013-05-22 12:23:12,375  INFO QSim:389 SIMULATION (NEW QSim) AT 23:00:00 : #Veh=1 lost=0 simT=79200.0s realT=0s; (s/r): Infinity
2013-05-22 12:23:12,375  INFO Gbl:48 used RAM: 138404456B = 135160kB = 131MB  free: 51707288B = 49MB  total: 190111744B = 181MB
2013-05-22 12:23:12,390  INFO AbstractController:174 ### ITERATION 9 fires after mobsim event
2013-05-22 12:23:12,406  INFO ControlerListenerManager:268 calling notifyAfterMobsim on org.matsim.core.controler.corelisteners.EventsHandling
2013-05-22 12:23:12,406  INFO ControlerListenerManager:268 calling notifyAfterMobsim on org.matsim.core.controler.corelisteners.LegTimesListener
2013-05-22 12:23:12,406  INFO LegTimesListener:48 [9] average trip (probably: leg) duration is: 308 seconds = 00:05:08
2013-05-22 12:23:12,406  INFO ControlerListenerManager:276 [it.9] all ControlerAfterMobsimListeners called.
2013-05-22 12:23:12,406  INFO AbstractController:176 ### ITERATION 9 fires scoring event
2013-05-22 12:23:12,406  INFO ControlerListenerManager:204 calling notifyScoring on org.matsim.core.controler.corelisteners.PlansScoring
2013-05-22 12:23:12,406  INFO ControlerListenerManager:215 [it.9] all ControlerScoringListeners called.
2013-05-22 12:23:12,406  INFO AbstractController:178 ### ITERATION 9 fires iteration end event
2013-05-22 12:23:12,406  INFO ControlerListenerManager:180 calling notifyIterationEnds on org.matsim.core.controler.corelisteners.EventsHandling
2013-05-22 12:23:12,406  INFO ControlerListenerManager:180 calling notifyIterationEnds on org.matsim.core.controler.corelisteners.PlansScoring
2013-05-22 12:23:12,406  INFO EventsManagerImpl:177 removing Event-Handler: org.matsim.core.scoring.EventsToScore
2013-05-22 12:23:12,406  INFO ControlerListenerManager:187 calling notifyIterationEnds on org.matsim.core.controler.corelisteners.LinkStatsControlerListener
2013-05-22 12:23:12,578  INFO ControlerListenerManager:187 calling notifyIterationEnds on org.matsim.analysis.TravelDistanceStats
2013-05-22 12:23:12,578  INFO TravelDistanceStats:142 [TravelDistanceStats] using 4 thread(s).
2013-05-22 12:23:12,750  INFO TravelDistanceStats:155 [TravelDistanceStats] all threads finished.
2013-05-22 12:23:12,750  INFO TravelDistanceStats:184 -- average of the average leg distance per plan (executed plans only): 5052.655717897603
2013-05-22 12:23:12,750  INFO TravelDistanceStats:185 -- average of the average leg distance per plan (worst plans only): 5061.487969108247
2013-05-22 12:23:12,750  INFO TravelDistanceStats:186 -- average of the average leg distance per plan (all plans): 5055.678109118811
2013-05-22 12:23:12,750  INFO TravelDistanceStats:187 -- average of the average leg distance per plan (best plans only): 5041.81098632454
2013-05-22 12:23:13,125  INFO ControlerListenerManager:187 calling notifyIterationEnds on org.matsim.analysis.ScoreStats
2013-05-22 12:23:13,125  INFO ScoreStats:182 -- avg. score of the executed plan of each agent: 105.52253150200188
2013-05-22 12:23:13,125  INFO ScoreStats:188 -- avg. score of the worst plan of each agent: 104.99664992106693
2013-05-22 12:23:13,125  INFO ScoreStats:189 -- avg. of the avg. plan score per agent: 105.29806322057367
2013-05-22 12:23:13,125  INFO ScoreStats:190 -- avg. score of the best plan of each agent: 105.57582645862917
2013-05-22 12:23:13,516  INFO ControlerListenerManager:187 calling notifyIterationEnds on org.matsim.core.controler.corelisteners.LegHistogramListener
2013-05-22 12:23:13,532  INFO LegHistogramListener:77 number of legs:	290	100%
2013-05-22 12:23:13,532  INFO LegHistogramListener:84 number of car legs:	290	100.0%
2013-05-22 12:23:13,532  INFO LegHistogramListener:86 (car legs include legs by pt vehicles)
2013-05-22 12:23:14,813  INFO ControlerListenerManager:191 [it.9] all ControlerIterationEndsListeners called.
2013-05-22 12:23:14,830  INFO AbstractController:182 ### ITERATION 9 ENDS
2013-05-22 12:23:14,830  INFO AbstractController:183 ###################################################
2013-05-22 12:23:14,830  INFO ControlerListenerManager:139 calling notifyShutdown on org.matsim.core.controler.corelisteners.EventsHandling
2013-05-22 12:23:14,830  INFO ControlerListenerManager:139 calling notifyShutdown on org.matsim.core.controler.corelisteners.DumpDataAtEnd
2013-05-22 12:23:14,830  INFO Counter:51 [PopulationWriter] dumped person # 1
2013-05-22 12:23:14,830  INFO Counter:51 [PopulationWriter] dumped person # 2
2013-05-22 12:23:14,830  INFO Counter:51 [PopulationWriter] dumped person # 4
2013-05-22 12:23:14,830  INFO Counter:51 [PopulationWriter] dumped person # 8
2013-05-22 12:23:14,846  INFO Counter:51 [PopulationWriter] dumped person # 16
2013-05-22 12:23:14,846  INFO Counter:51 [PopulationWriter] dumped person # 32
2013-05-22 12:23:14,877  INFO Counter:51 [PopulationWriter] dumped person # 64
2013-05-22 12:23:14,924  INFO Counter:51 [PopulationWriter] dumped person # 128
2013-05-22 12:23:14,939  INFO Counter:57 [PopulationWriter] dumped person # 145
2013-05-22 12:23:14,939  INFO PopulationWriter:173 Population written to: ./output/run0.output_plans.xml.gz
2013-05-22 12:23:14,939  INFO NetworkWriter:47 Writing network to file: ./output/run0.output_network.xml.gz...
2013-05-22 12:23:15,659  INFO NetworkWriter:50 done.
2013-05-22 12:23:15,690  INFO Counter:51 [FacilitiesWriter] dumped facility # 1
2013-05-22 12:23:15,690  INFO Counter:51 [FacilitiesWriter] dumped facility # 2
2013-05-22 12:23:15,690  INFO Counter:51 [FacilitiesWriter] dumped facility # 4
2013-05-22 12:23:15,690  INFO Counter:51 [FacilitiesWriter] dumped facility # 8
2013-05-22 12:23:15,690  INFO Counter:51 [FacilitiesWriter] dumped facility # 16
2013-05-22 12:23:15,690  INFO Counter:57 [FacilitiesWriter] dumped facility # 23
2013-05-22 12:23:15,690  INFO ControlerListenerManager:144 calling notifyShutdown on org.matsim.analysis.TravelDistanceStats
2013-05-22 12:23:15,690  INFO ControlerListenerManager:144 calling notifyShutdown on org.matsim.analysis.ScoreStats
2013-05-22 12:23:15,706  INFO ControlerListenerManager:148 all ControlerShutdownListeners called.
